*SPEF "ieee 1481-1999"
*DESIGN "rift2Wrap"
*DATE "11:11:11 Fri 11 11, 1111"
*VENDOR "OpenRCX"
*PROGRAM "Parallel Extraction"
*VERSION "1.0"
*DESIGN_FLOW "NAME_SCOPE LOCAL" "PIN_CAP NONE"
*DIVIDER /
*DELIMITER :
*BUS_DELIMITER []
*T_UNIT 1 NS
*C_UNIT 1 PF
*R_UNIT 1 OHM
*L_UNIT 1 HENRY

*NAME_MAP
*1 io_in[0]
*2 io_in[10]
*3 io_in[11]
*4 io_in[12]
*5 io_in[13]
*6 io_in[14]
*7 io_in[15]
*8 io_in[16]
*9 io_in[17]
*10 io_in[18]
*11 io_in[19]
*12 io_in[1]
*13 io_in[20]
*14 io_in[21]
*15 io_in[22]
*16 io_in[23]
*17 io_in[24]
*18 io_in[25]
*19 io_in[26]
*20 io_in[27]
*21 io_in[28]
*22 io_in[29]
*23 io_in[2]
*24 io_in[30]
*25 io_in[31]
*26 io_in[32]
*27 io_in[33]
*28 io_in[34]
*29 io_in[35]
*30 io_in[36]
*31 io_in[37]
*32 io_in[3]
*33 io_in[4]
*34 io_in[5]
*35 io_in[6]
*36 io_in[7]
*37 io_in[8]
*38 io_in[9]
*39 net61
*40 net71
*41 net72
*42 net73
*43 net74
*44 net75
*45 net76
*46 net77
*47 net78
*48 net79
*49 net80
*50 net62
*51 net81
*52 net82
*53 net83
*54 net84
*55 net85
*56 net86
*57 net87
*58 net88
*59 net180
*60 net89
*61 net63
*62 net90
*63 net91
*64 net92
*65 net93
*66 net94
*67 net95
*68 net96
*69 net97
*70 net64
*71 net65
*72 net66
*73 net67
*74 net68
*75 net69
*76 net70
*77 io_out[0]
*78 io_out[10]
*79 io_out[11]
*80 io_out[12]
*81 io_out[13]
*82 io_out[14]
*83 io_out[15]
*84 io_out[16]
*85 io_out[17]
*86 io_out[18]
*87 io_out[19]
*88 io_out[1]
*89 io_out[20]
*90 io_out[21]
*91 io_out[22]
*92 io_out[23]
*93 io_out[24]
*94 io_out[25]
*95 io_out[26]
*96 io_out[27]
*97 net98
*98 net99
*99 io_out[2]
*100 net100
*101 net101
*102 net102
*103 net103
*104 net104
*105 net105
*106 net106
*107 net107
*108 io_out[3]
*109 io_out[4]
*110 io_out[5]
*111 io_out[6]
*112 io_out[7]
*113 io_out[8]
*114 io_out[9]
*115 la_data_in[0]
*116 la_data_in[10]
*117 la_data_in[11]
*118 la_data_in[12]
*119 la_data_in[13]
*120 la_data_in[14]
*121 la_data_in[15]
*122 la_data_in[16]
*123 la_data_in[17]
*124 la_data_in[18]
*125 la_data_in[19]
*126 la_data_in[1]
*127 la_data_in[20]
*128 la_data_in[21]
*129 la_data_in[22]
*130 la_data_in[23]
*131 la_data_in[24]
*132 la_data_in[25]
*133 la_data_in[26]
*134 la_data_in[27]
*135 la_data_in[28]
*136 la_data_in[29]
*137 la_data_in[2]
*138 la_data_in[30]
*139 la_data_in[31]
*140 la_data_in[32]
*141 la_data_in[33]
*142 la_data_in[34]
*143 la_data_in[35]
*144 la_data_in[36]
*145 la_data_in[37]
*146 la_data_in[38]
*147 la_data_in[39]
*148 la_data_in[3]
*149 la_data_in[40]
*150 la_data_in[41]
*151 la_data_in[42]
*152 la_data_in[43]
*153 la_data_in[44]
*154 la_data_in[45]
*155 la_data_in[46]
*156 la_data_in[47]
*157 la_data_in[48]
*158 la_data_in[49]
*159 la_data_in[4]
*160 la_data_in[50]
*161 la_data_in[51]
*162 la_data_in[52]
*163 la_data_in[53]
*164 la_data_in[54]
*165 la_data_in[55]
*166 la_data_in[56]
*167 la_data_in[57]
*168 la_data_in[58]
*169 la_data_in[59]
*170 la_data_in[5]
*171 la_data_in[60]
*172 la_data_in[61]
*173 la_data_in[62]
*174 la_data_in[63]
*175 la_data_in[6]
*176 la_data_in[7]
*177 la_data_in[8]
*178 la_data_in[9]
*179 la_data_out[0]
*180 la_data_out[10]
*181 la_data_out[11]
*182 la_data_out[12]
*183 la_data_out[13]
*184 la_data_out[14]
*185 la_data_out[15]
*186 la_data_out[16]
*187 la_data_out[17]
*188 la_data_out[18]
*189 la_data_out[19]
*190 la_data_out[1]
*191 la_data_out[20]
*192 la_data_out[21]
*193 la_data_out[22]
*194 la_data_out[23]
*195 la_data_out[24]
*196 la_data_out[25]
*197 la_data_out[26]
*198 la_data_out[27]
*199 net108
*200 net109
*201 la_data_out[2]
*202 net110
*203 net111
*204 net112
*205 net113
*206 net114
*207 net115
*208 net116
*209 net117
*210 net118
*211 net119
*212 la_data_out[3]
*213 net120
*214 net121
*215 net122
*216 net123
*217 net124
*218 net125
*219 net126
*220 net127
*221 net128
*222 net129
*223 la_data_out[4]
*224 net130
*225 net131
*226 net132
*227 net133
*228 net134
*229 net135
*230 net136
*231 net137
*232 net138
*233 net139
*234 la_data_out[5]
*235 net140
*236 net141
*237 net142
*238 net143
*239 la_data_out[6]
*240 la_data_out[7]
*241 la_data_out[8]
*242 la_data_out[9]
*243 la_oenb[0]
*244 la_oenb[10]
*245 la_oenb[11]
*246 la_oenb[12]
*247 la_oenb[13]
*248 la_oenb[14]
*249 la_oenb[15]
*250 la_oenb[16]
*251 la_oenb[17]
*252 la_oenb[18]
*253 la_oenb[19]
*254 la_oenb[1]
*255 la_oenb[20]
*256 la_oenb[21]
*257 la_oenb[22]
*258 la_oenb[23]
*259 la_oenb[24]
*260 la_oenb[25]
*261 la_oenb[26]
*262 la_oenb[27]
*263 la_oenb[28]
*264 la_oenb[29]
*265 la_oenb[2]
*266 la_oenb[30]
*267 la_oenb[31]
*268 la_oenb[32]
*269 la_oenb[33]
*270 la_oenb[34]
*271 la_oenb[35]
*272 la_oenb[36]
*273 la_oenb[37]
*274 la_oenb[38]
*275 la_oenb[39]
*276 la_oenb[3]
*277 la_oenb[40]
*278 la_oenb[41]
*279 la_oenb[42]
*280 la_oenb[43]
*281 la_oenb[44]
*282 la_oenb[45]
*283 la_oenb[46]
*284 la_oenb[47]
*285 la_oenb[48]
*286 la_oenb[49]
*287 la_oenb[4]
*288 la_oenb[50]
*289 la_oenb[51]
*290 la_oenb[52]
*291 la_oenb[53]
*292 la_oenb[54]
*293 la_oenb[55]
*294 la_oenb[56]
*295 la_oenb[57]
*296 la_oenb[58]
*297 la_oenb[59]
*298 la_oenb[5]
*299 la_oenb[60]
*300 la_oenb[61]
*301 la_oenb[62]
*302 la_oenb[63]
*303 la_oenb[6]
*304 la_oenb[7]
*305 la_oenb[8]
*306 la_oenb[9]
*307 user_clock2
*308 net144
*309 net145
*310 net146
*313 wb_clk_i
*314 wb_rst_i
*315 net147
*316 wbs_adr_i[0]
*317 wbs_adr_i[10]
*318 wbs_adr_i[11]
*319 wbs_adr_i[12]
*320 wbs_adr_i[13]
*321 wbs_adr_i[14]
*322 wbs_adr_i[15]
*323 wbs_adr_i[16]
*324 wbs_adr_i[17]
*325 wbs_adr_i[18]
*326 wbs_adr_i[19]
*327 wbs_adr_i[1]
*328 wbs_adr_i[20]
*329 wbs_adr_i[21]
*330 wbs_adr_i[22]
*331 wbs_adr_i[23]
*332 wbs_adr_i[24]
*333 wbs_adr_i[25]
*334 wbs_adr_i[26]
*335 wbs_adr_i[27]
*336 wbs_adr_i[28]
*337 wbs_adr_i[29]
*338 wbs_adr_i[2]
*339 wbs_adr_i[30]
*340 wbs_adr_i[31]
*341 wbs_adr_i[3]
*342 wbs_adr_i[4]
*343 wbs_adr_i[5]
*344 wbs_adr_i[6]
*345 wbs_adr_i[7]
*346 wbs_adr_i[8]
*347 wbs_adr_i[9]
*348 wbs_cyc_i
*349 wbs_dat_i[0]
*350 wbs_dat_i[10]
*351 wbs_dat_i[11]
*352 wbs_dat_i[12]
*353 wbs_dat_i[13]
*354 wbs_dat_i[14]
*355 wbs_dat_i[15]
*356 wbs_dat_i[16]
*357 wbs_dat_i[17]
*358 wbs_dat_i[18]
*359 wbs_dat_i[19]
*360 wbs_dat_i[1]
*361 wbs_dat_i[20]
*362 wbs_dat_i[21]
*363 wbs_dat_i[22]
*364 wbs_dat_i[23]
*365 wbs_dat_i[24]
*366 wbs_dat_i[25]
*367 wbs_dat_i[26]
*368 wbs_dat_i[27]
*369 wbs_dat_i[28]
*370 wbs_dat_i[29]
*371 wbs_dat_i[2]
*372 wbs_dat_i[30]
*373 wbs_dat_i[31]
*374 wbs_dat_i[3]
*375 wbs_dat_i[4]
*376 wbs_dat_i[5]
*377 wbs_dat_i[6]
*378 wbs_dat_i[7]
*379 wbs_dat_i[8]
*380 wbs_dat_i[9]
*381 net148
*382 net158
*383 net159
*384 net160
*385 net161
*386 net162
*387 net163
*388 net164
*389 net165
*390 net166
*391 net167
*392 net149
*393 net168
*394 net169
*395 net170
*396 net171
*397 net172
*398 net173
*399 net174
*400 net175
*401 net176
*402 net177
*403 net150
*404 net178
*405 net179
*406 net151
*407 net152
*408 net153
*409 net154
*410 net155
*411 net156
*412 net157
*413 wbs_sel_i[0]
*414 wbs_sel_i[1]
*415 wbs_sel_i[2]
*416 wbs_sel_i[3]
*417 wbs_stb_i
*418 wbs_we_i
*419 _000_
*420 _001_
*421 _002_
*422 _003_
*423 _004_
*424 _005_
*425 _006_
*426 _007_
*427 _008_
*428 _009_
*429 _010_
*430 _011_
*431 _012_
*432 _013_
*433 _014_
*434 _015_
*435 _016_
*436 _017_
*437 _018_
*438 _019_
*439 _020_
*440 _021_
*441 _022_
*442 _023_
*443 _024_
*444 _025_
*445 _026_
*446 _027_
*447 _028_
*448 _029_
*449 _030_
*450 _031_
*451 _032_
*452 _033_
*453 _034_
*454 _035_
*455 _036_
*456 _037_
*457 _038_
*458 _039_
*459 _040_
*460 _041_
*461 _042_
*462 _043_
*463 _044_
*464 _045_
*465 _046_
*466 _047_
*467 _048_
*468 _049_
*469 _050_
*470 _051_
*471 _052_
*472 _053_
*473 _054_
*474 _055_
*475 _056_
*476 _057_
*477 _058_
*478 _059_
*479 _060_
*480 _061_
*481 _062_
*482 _063_
*483 _064_
*484 _065_
*485 _066_
*486 _067_
*487 _068_
*488 _069_
*489 _070_
*490 _071_
*491 _072_
*492 _073_
*493 _074_
*494 _075_
*495 _076_
*496 _077_
*497 _078_
*498 _079_
*499 _080_
*500 _081_
*501 _082_
*502 _083_
*503 _084_
*504 _085_
*505 _086_
*506 _087_
*507 _088_
*508 _089_
*509 _090_
*510 _091_
*511 _092_
*512 _093_
*513 _094_
*514 _095_
*515 _096_
*516 _097_
*517 _098_
*518 _099_
*519 _100_
*520 _101_
*521 _102_
*522 _103_
*523 _104_
*524 _105_
*525 _106_
*526 _107_
*527 _108_
*528 _109_
*529 _110_
*530 _111_
*531 _112_
*532 _113_
*533 _114_
*534 _115_
*535 _116_
*536 _117_
*537 _118_
*538 _119_
*539 _120_
*540 _121_
*541 _122_
*542 _123_
*543 _124_
*544 _125_
*545 _126_
*546 _127_
*547 _128_
*548 _129_
*549 _130_
*550 _131_
*551 _132_
*552 _133_
*553 _134_
*554 _135_
*555 _136_
*556 _137_
*557 _138_
*558 _139_
*559 _140_
*560 _141_
*561 _142_
*562 _143_
*563 _144_
*564 _145_
*565 _146_
*566 _147_
*567 _148_
*568 _149_
*569 _150_
*570 _151_
*571 _152_
*572 _153_
*573 _154_
*574 _155_
*575 _156_
*576 _157_
*577 _158_
*578 _159_
*579 _160_
*580 _161_
*581 _162_
*582 _163_
*583 _164_
*584 _165_
*585 _166_
*586 _167_
*587 _168_
*588 _169_
*589 _170_
*590 _171_
*591 _172_
*592 clknet_0_wb_clk_i
*593 clknet_1_0__leaf_wb_clk_i
*594 clknet_1_1__leaf_wb_clk_i
*595 i_fake\.lfsr_prng\.io_out_0
*596 i_fake\.lfsr_prng\.io_out_1
*597 i_fake\.lfsr_prng\.io_out_10
*598 i_fake\.lfsr_prng\.io_out_11
*599 i_fake\.lfsr_prng\.io_out_12
*600 i_fake\.lfsr_prng\.io_out_13
*601 i_fake\.lfsr_prng\.io_out_14
*602 i_fake\.lfsr_prng\.io_out_15
*603 i_fake\.lfsr_prng\.io_out_2
*604 i_fake\.lfsr_prng\.io_out_3
*605 i_fake\.lfsr_prng\.io_out_4
*606 i_fake\.lfsr_prng\.io_out_5
*607 i_fake\.lfsr_prng\.io_out_6
*608 i_fake\.lfsr_prng\.io_out_7
*609 i_fake\.lfsr_prng\.io_out_8
*610 i_fake\.lfsr_prng\.io_out_9
*611 net1
*612 net10
*613 net11
*614 net12
*615 net13
*616 net14
*617 net15
*618 net16
*619 net17
*620 net18
*621 net19
*622 net2
*623 net20
*624 net21
*625 net22
*626 net23
*627 net24
*628 net25
*629 net26
*630 net27
*631 net28
*632 net29
*633 net3
*634 net30
*635 net31
*636 net32
*637 net33
*638 net34
*639 net35
*640 net36
*641 net37
*642 net38
*643 net39
*644 net4
*645 net40
*646 net41
*647 net42
*648 net43
*649 net44
*650 net45
*651 net46
*652 net47
*653 net48
*654 net49
*655 net5
*656 net50
*657 net51
*658 net52
*659 net53
*660 net54
*661 net55
*662 net56
*663 net57
*664 net58
*665 net59
*666 net6
*667 net60
*668 net7
*669 net8
*670 net9
*671 ANTENNA__173__I
*672 ANTENNA__174__I
*673 ANTENNA__175__A2
*674 ANTENNA__176__I
*675 ANTENNA__178__I
*676 ANTENNA__179__A1
*677 ANTENNA__180__I
*678 ANTENNA__181__A1
*679 ANTENNA__181__A2
*680 ANTENNA__182__A1
*681 ANTENNA__182__A2
*682 ANTENNA__183__I
*683 ANTENNA__185__I
*684 ANTENNA__186__I
*685 ANTENNA__188__A1
*686 ANTENNA__188__A2
*687 ANTENNA__188__A3
*688 ANTENNA__189__A1
*689 ANTENNA__189__B
*690 ANTENNA__190__I
*691 ANTENNA__193__I
*692 ANTENNA__194__I
*693 ANTENNA__195__A1
*694 ANTENNA__196__A1
*695 ANTENNA__198__A2
*696 ANTENNA__203__C
*697 ANTENNA__204__A1
*698 ANTENNA__206__A1
*699 ANTENNA__206__A2
*700 ANTENNA__208__A1
*701 ANTENNA__208__A2
*702 ANTENNA__209__A1
*703 ANTENNA__211__A1
*704 ANTENNA__211__A2
*705 ANTENNA__212__A1
*706 ANTENNA__212__A2
*707 ANTENNA__213__I
*708 ANTENNA__214__B
*709 ANTENNA__216__A1
*710 ANTENNA__217__A1
*711 ANTENNA__218__I
*712 ANTENNA__219__I
*713 ANTENNA__220__A1
*714 ANTENNA__222__I
*715 ANTENNA__223__I
*716 ANTENNA__224__A1
*717 ANTENNA__225__I
*718 ANTENNA__226__A1
*719 ANTENNA__226__A2
*720 ANTENNA__227__I
*721 ANTENNA__228__I
*722 ANTENNA__230__A2
*723 ANTENNA__231__A1
*724 ANTENNA__231__A2
*725 ANTENNA__232__A2
*726 ANTENNA__233__I
*727 ANTENNA__234__A1
*728 ANTENNA__234__A2
*729 ANTENNA__235__A2
*730 ANTENNA__236__I
*731 ANTENNA__237__A1
*732 ANTENNA__237__A2
*733 ANTENNA__238__C
*734 ANTENNA__240__I
*735 ANTENNA__241__A1
*736 ANTENNA__241__A2
*737 ANTENNA__241__A3
*738 ANTENNA__242__A1
*739 ANTENNA__243__C
*740 ANTENNA__246__I
*741 ANTENNA__247__A1
*742 ANTENNA__248__A1
*743 ANTENNA__248__A2
*744 ANTENNA__249__A1
*745 ANTENNA__249__A2
*746 ANTENNA__250__A1
*747 ANTENNA__250__A2
*748 ANTENNA__251__A1
*749 ANTENNA__251__B
*750 ANTENNA__252__A1
*751 ANTENNA__252__B1
*752 ANTENNA__253__A1
*753 ANTENNA__256__I
*754 ANTENNA__257__A1
*755 ANTENNA__257__C
*756 ANTENNA__258__I
*757 ANTENNA__259__I
*758 ANTENNA__260__A1
*759 ANTENNA__260__A2
*760 ANTENNA__261__I
*761 ANTENNA__262__A1
*762 ANTENNA__263__I
*763 ANTENNA__264__I
*764 ANTENNA__265__A1
*765 ANTENNA__265__A2
*766 ANTENNA__266__A1
*767 ANTENNA__266__A2
*768 ANTENNA__267__A2
*769 ANTENNA__268__I
*770 ANTENNA__269__A1
*771 ANTENNA__269__A2
*772 ANTENNA__270__A1
*773 ANTENNA__270__A2
*774 ANTENNA__271__I
*775 ANTENNA__272__A2
*776 ANTENNA__272__A3
*777 ANTENNA__273__C
*778 ANTENNA__274__A1
*779 ANTENNA__275__I
*780 ANTENNA__276__A1
*781 ANTENNA__276__A3
*782 ANTENNA__277__A1
*783 ANTENNA__277__A2
*784 ANTENNA__278__A1
*785 ANTENNA__278__C
*786 ANTENNA__280__I
*787 ANTENNA__282__A1
*788 ANTENNA__282__A2
*789 ANTENNA__283__A1
*790 ANTENNA__283__A2
*791 ANTENNA__284__A1
*792 ANTENNA__284__A2
*793 ANTENNA__285__A1
*794 ANTENNA__285__A2
*795 ANTENNA__285__B
*796 ANTENNA__286__A1
*797 ANTENNA__286__B
*798 ANTENNA__287__A1
*799 ANTENNA__287__A2
*800 ANTENNA__287__B1
*801 ANTENNA__288__A1
*802 ANTENNA__291__A1
*803 ANTENNA__291__A2
*804 ANTENNA__291__C
*805 ANTENNA__292__I
*806 ANTENNA__293__I
*807 ANTENNA__295__I
*808 ANTENNA__296__A1
*809 ANTENNA__296__A2
*810 ANTENNA__297__I
*811 ANTENNA__298__I
*812 ANTENNA__299__A1
*813 ANTENNA__299__A2
*814 ANTENNA__300__A1
*815 ANTENNA__301__A2
*816 ANTENNA__302__I
*817 ANTENNA__304__A1
*818 ANTENNA__304__A2
*819 ANTENNA__306__A1
*820 ANTENNA__307__C
*821 ANTENNA__308__A1
*822 ANTENNA__309__I
*823 ANTENNA__310__A2
*824 ANTENNA__310__A3
*825 ANTENNA__311__I
*826 ANTENNA__312__A2
*827 ANTENNA__313__A1
*828 ANTENNA__313__C
*829 ANTENNA__315__I
*830 ANTENNA__316__I
*831 ANTENNA__319__A1
*832 ANTENNA__319__A2
*833 ANTENNA__320__B
*834 ANTENNA__321__B
*835 ANTENNA__322__A2
*836 ANTENNA__322__B1
*837 ANTENNA__323__A1
*838 ANTENNA__323__A2
*839 ANTENNA__326__A2
*840 ANTENNA__326__C
*841 ANTENNA__328__I
*842 ANTENNA__329__A1
*843 ANTENNA__329__A2
*844 ANTENNA__330__A1
*845 ANTENNA__332__I
*846 ANTENNA__333__A1
*847 ANTENNA__333__A2
*848 ANTENNA__333__B
*849 ANTENNA__334__A1
*850 ANTENNA__334__A2
*851 ANTENNA__335__I
*852 ANTENNA__336__A1
*853 ANTENNA__336__A2
*854 ANTENNA__337__I
*855 ANTENNA__338__A2
*856 ANTENNA__339__A2
*857 ANTENNA__340__A1
*858 ANTENNA__340__A2
*859 ANTENNA__341__A2
*860 ANTENNA__342__A2
*861 ANTENNA__343__I
*862 ANTENNA__344__A2
*863 ANTENNA__345__A1
*864 ANTENNA__345__A2
*865 ANTENNA__346__A1
*866 ANTENNA__346__A2
*867 ANTENNA__347__I
*868 ANTENNA__348__A1
*869 ANTENNA__348__A2
*870 ANTENNA__349__I
*871 ANTENNA__350__A1
*872 ANTENNA__350__A2
*873 ANTENNA__351__A1
*874 ANTENNA__351__A2
*875 ANTENNA__352__A1
*876 ANTENNA__352__A2
*877 ANTENNA__353__A1
*878 ANTENNA__353__A2
*879 ANTENNA__354__I
*880 ANTENNA__355__A1
*881 ANTENNA__355__A2
*882 ANTENNA__356__A2
*883 ANTENNA__357__A2
*884 ANTENNA__358__I
*885 ANTENNA__359__A1
*886 ANTENNA__359__A2
*887 ANTENNA__359__C
*888 ANTENNA__360__A1
*889 ANTENNA__360__A2
*890 ANTENNA__361__A1
*891 ANTENNA__361__A2
*892 ANTENNA__361__C
*893 ANTENNA__362__I
*894 ANTENNA__363__A1
*895 ANTENNA__363__A2
*896 ANTENNA__364__A1
*897 ANTENNA__364__A2
*898 ANTENNA__364__C
*899 ANTENNA__365__I
*900 ANTENNA__366__A1
*901 ANTENNA__366__A2
*902 ANTENNA__367__A1
*903 ANTENNA__367__A2
*904 ANTENNA__367__C
*905 ANTENNA__368__A2
*906 ANTENNA__369__A2
*907 ANTENNA__369__C
*908 ANTENNA__370__A1
*909 ANTENNA__370__A2
*910 ANTENNA__371__A1
*911 ANTENNA__371__A2
*912 ANTENNA__371__C
*913 ANTENNA__372__A2
*914 ANTENNA__373__A2
*915 ANTENNA__373__C
*916 ANTENNA__374__D
*917 ANTENNA__375__CLK
*918 ANTENNA__375__D
*919 ANTENNA__376__CLK
*920 ANTENNA__376__D
*921 ANTENNA__377__D
*922 ANTENNA__378__CLK
*923 ANTENNA__378__D
*924 ANTENNA__379__D
*925 ANTENNA__380__CLK
*926 ANTENNA__380__D
*927 ANTENNA__381__CLK
*928 ANTENNA__381__D
*929 ANTENNA__382__D
*930 ANTENNA__383__D
*931 ANTENNA__384__D
*932 ANTENNA__385__CLK
*933 ANTENNA__385__D
*934 ANTENNA__386__D
*935 ANTENNA__387__CLK
*936 ANTENNA__387__D
*937 ANTENNA__388__CLK
*938 ANTENNA__388__D
*939 ANTENNA__389__CLK
*940 ANTENNA__389__D
*941 ANTENNA__510__I
*942 ANTENNA__511__I
*943 ANTENNA__512__I
*944 ANTENNA__513__I
*945 ANTENNA__514__I
*946 ANTENNA__515__I
*947 ANTENNA__516__I
*948 ANTENNA__517__I
*949 ANTENNA__518__I
*950 ANTENNA__519__I
*951 ANTENNA__520__I
*952 ANTENNA__521__I
*953 ANTENNA__522__I
*954 ANTENNA__523__I
*955 ANTENNA__524__I
*956 ANTENNA__525__I
*957 ANTENNA__526__I
*958 ANTENNA__527__I
*959 ANTENNA__528__I
*960 ANTENNA__529__I
*961 ANTENNA__530__I
*962 ANTENNA__531__I
*963 ANTENNA__532__I
*964 ANTENNA__533__I
*965 ANTENNA__534__I
*966 ANTENNA__535__I
*967 ANTENNA__536__I
*968 ANTENNA__537__I
*969 ANTENNA_clkbuf_0_wb_clk_i_I
*970 ANTENNA_input1_I
*971 ANTENNA_input2_I
*972 ANTENNA_input3_I
*973 ANTENNA_input4_I
*974 ANTENNA_output10_I
*975 ANTENNA_output11_I
*976 ANTENNA_output12_I
*977 ANTENNA_output13_I
*978 ANTENNA_output14_I
*979 ANTENNA_output15_I
*980 ANTENNA_output16_I
*981 ANTENNA_output17_I
*982 ANTENNA_output18_I
*983 ANTENNA_output19_I
*984 ANTENNA_output20_I
*985 ANTENNA_output21_I
*986 ANTENNA_output22_I
*987 ANTENNA_output23_I
*988 ANTENNA_output24_I
*989 ANTENNA_output25_I
*990 ANTENNA_output26_I
*991 ANTENNA_output27_I
*992 ANTENNA_output28_I
*993 ANTENNA_output29_I
*994 ANTENNA_output30_I
*995 ANTENNA_output31_I
*996 ANTENNA_output32_I
*997 ANTENNA_output33_I
*998 ANTENNA_output36_I
*999 ANTENNA_output37_I
*1000 ANTENNA_output42_I
*1001 ANTENNA_output43_I
*1002 ANTENNA_output46_I
*1003 ANTENNA_output47_I
*1004 ANTENNA_output48_I
*1005 ANTENNA_output50_I
*1006 ANTENNA_output51_I
*1007 ANTENNA_output52_I
*1008 ANTENNA_output53_I
*1009 ANTENNA_output55_I
*1010 ANTENNA_output56_I
*1011 ANTENNA_output57_I
*1012 ANTENNA_output58_I
*1013 ANTENNA_output5_I
*1014 ANTENNA_output60_I
*1015 ANTENNA_output6_I
*1016 ANTENNA_output7_I
*1017 ANTENNA_output8_I
*1018 ANTENNA_output9_I
*1019 FILLER_0_1003
*1020 FILLER_0_1007
*1021 FILLER_0_1013
*1022 FILLER_0_1017
*1023 FILLER_0_1021
*1024 FILLER_0_1023
*1025 FILLER_0_1028
*1026 FILLER_0_103
*1027 FILLER_0_1036
*1028 FILLER_0_1038
*1029 FILLER_0_1043
*1030 FILLER_0_1047
*1031 FILLER_0_1049
*1032 FILLER_0_1052
*1033 FILLER_0_1058
*1034 FILLER_0_1066
*1035 FILLER_0_1068
*1036 FILLER_0_107
*1037 FILLER_0_1073
*1038 FILLER_0_1081
*1039 FILLER_0_1087
*1040 FILLER_0_1092
*1041 FILLER_0_1096
*1042 FILLER_0_1098
*1043 FILLER_0_1103
*1044 FILLER_0_1111
*1045 FILLER_0_1113
*1046 FILLER_0_1118
*1047 FILLER_0_1122
*1048 FILLER_0_1126
*1049 FILLER_0_1128
*1050 FILLER_0_1133
*1051 FILLER_0_1141
*1052 FILLER_0_1143
*1053 FILLER_0_1148
*1054 FILLER_0_1152
*1055 FILLER_0_1154
*1056 FILLER_0_1157
*1057 FILLER_0_1163
*1058 FILLER_0_1171
*1059 FILLER_0_1173
*1060 FILLER_0_1178
*1061 FILLER_0_1186
*1062 FILLER_0_1192
*1063 FILLER_0_1197
*1064 FILLER_0_1201
*1065 FILLER_0_1203
*1066 FILLER_0_1208
*1067 FILLER_0_1216
*1068 FILLER_0_1218
*1069 FILLER_0_1223
*1070 FILLER_0_1227
*1071 FILLER_0_1231
*1072 FILLER_0_1233
*1073 FILLER_0_1238
*1074 FILLER_0_1246
*1075 FILLER_0_1248
*1076 FILLER_0_1253
*1077 FILLER_0_1257
*1078 FILLER_0_1259
*1079 FILLER_0_1262
*1080 FILLER_0_1268
*1081 FILLER_0_1276
*1082 FILLER_0_1278
*1083 FILLER_0_1283
*1084 FILLER_0_1291
*1085 FILLER_0_1297
*1086 FILLER_0_1302
*1087 FILLER_0_1306
*1088 FILLER_0_1308
*1089 FILLER_0_1313
*1090 FILLER_0_1321
*1091 FILLER_0_1323
*1092 FILLER_0_1328
*1093 FILLER_0_1332
*1094 FILLER_0_1336
*1095 FILLER_0_1338
*1096 FILLER_0_1343
*1097 FILLER_0_1351
*1098 FILLER_0_1353
*1099 FILLER_0_1358
*1100 FILLER_0_1362
*1101 FILLER_0_1364
*1102 FILLER_0_1367
*1103 FILLER_0_137
*1104 FILLER_0_1373
*1105 FILLER_0_1381
*1106 FILLER_0_1383
*1107 FILLER_0_1388
*1108 FILLER_0_139
*1109 FILLER_0_1396
*1110 FILLER_0_1402
*1111 FILLER_0_1407
*1112 FILLER_0_1411
*1113 FILLER_0_1413
*1114 FILLER_0_1418
*1115 FILLER_0_142
*1116 FILLER_0_1426
*1117 FILLER_0_1428
*1118 FILLER_0_1433
*1119 FILLER_0_1437
*1120 FILLER_0_1441
*1121 FILLER_0_1443
*1122 FILLER_0_1448
*1123 FILLER_0_1456
*1124 FILLER_0_1458
*1125 FILLER_0_1463
*1126 FILLER_0_1467
*1127 FILLER_0_1469
*1128 FILLER_0_147
*1129 FILLER_0_1472
*1130 FILLER_0_1478
*1131 FILLER_0_1486
*1132 FILLER_0_1488
*1133 FILLER_0_1493
*1134 FILLER_0_1501
*1135 FILLER_0_1507
*1136 FILLER_0_151
*1137 FILLER_0_1512
*1138 FILLER_0_1516
*1139 FILLER_0_1518
*1140 FILLER_0_1523
*1141 FILLER_0_1531
*1142 FILLER_0_1533
*1143 FILLER_0_1538
*1144 FILLER_0_1542
*1145 FILLER_0_1547
*1146 FILLER_0_155
*1147 FILLER_0_1553
*1148 FILLER_0_1569
*1149 FILLER_0_1573
*1150 FILLER_0_1577
*1151 FILLER_0_163
*1152 FILLER_0_171
*1153 FILLER_0_177
*1154 FILLER_0_182
*1155 FILLER_0_186
*1156 FILLER_0_188
*1157 FILLER_0_193
*1158 FILLER_0_2
*1159 FILLER_0_201
*1160 FILLER_0_203
*1161 FILLER_0_208
*1162 FILLER_0_212
*1163 FILLER_0_216
*1164 FILLER_0_218
*1165 FILLER_0_223
*1166 FILLER_0_23
*1167 FILLER_0_231
*1168 FILLER_0_233
*1169 FILLER_0_238
*1170 FILLER_0_242
*1171 FILLER_0_244
*1172 FILLER_0_247
*1173 FILLER_0_253
*1174 FILLER_0_26
*1175 FILLER_0_261
*1176 FILLER_0_263
*1177 FILLER_0_268
*1178 FILLER_0_276
*1179 FILLER_0_282
*1180 FILLER_0_287
*1181 FILLER_0_291
*1182 FILLER_0_293
*1183 FILLER_0_298
*1184 FILLER_0_306
*1185 FILLER_0_308
*1186 FILLER_0_313
*1187 FILLER_0_317
*1188 FILLER_0_321
*1189 FILLER_0_323
*1190 FILLER_0_328
*1191 FILLER_0_336
*1192 FILLER_0_338
*1193 FILLER_0_34
*1194 FILLER_0_343
*1195 FILLER_0_347
*1196 FILLER_0_349
*1197 FILLER_0_352
*1198 FILLER_0_358
*1199 FILLER_0_366
*1200 FILLER_0_368
*1201 FILLER_0_37
*1202 FILLER_0_373
*1203 FILLER_0_381
*1204 FILLER_0_387
*1205 FILLER_0_392
*1206 FILLER_0_396
*1207 FILLER_0_398
*1208 FILLER_0_403
*1209 FILLER_0_411
*1210 FILLER_0_413
*1211 FILLER_0_418
*1212 FILLER_0_422
*1213 FILLER_0_426
*1214 FILLER_0_428
*1215 FILLER_0_433
*1216 FILLER_0_441
*1217 FILLER_0_443
*1218 FILLER_0_448
*1219 FILLER_0_452
*1220 FILLER_0_454
*1221 FILLER_0_457
*1222 FILLER_0_463
*1223 FILLER_0_471
*1224 FILLER_0_473
*1225 FILLER_0_478
*1226 FILLER_0_486
*1227 FILLER_0_492
*1228 FILLER_0_497
*1229 FILLER_0_501
*1230 FILLER_0_503
*1231 FILLER_0_508
*1232 FILLER_0_516
*1233 FILLER_0_518
*1234 FILLER_0_523
*1235 FILLER_0_527
*1236 FILLER_0_531
*1237 FILLER_0_533
*1238 FILLER_0_538
*1239 FILLER_0_546
*1240 FILLER_0_548
*1241 FILLER_0_553
*1242 FILLER_0_559
*1243 FILLER_0_562
*1244 FILLER_0_567
*1245 FILLER_0_585
*1246 FILLER_0_593
*1247 FILLER_0_597
*1248 FILLER_0_613
*1249 FILLER_0_629
*1250 FILLER_0_632
*1251 FILLER_0_647
*1252 FILLER_0_663
*1253 FILLER_0_667
*1254 FILLER_0_670
*1255 FILLER_0_674
*1256 FILLER_0_677
*1257 FILLER_0_68
*1258 FILLER_0_693
*1259 FILLER_0_697
*1260 FILLER_0_699
*1261 FILLER_0_7
*1262 FILLER_0_702
*1263 FILLER_0_718
*1264 FILLER_0_72
*1265 FILLER_0_734
*1266 FILLER_0_737
*1267 FILLER_0_752
*1268 FILLER_0_768
*1269 FILLER_0_77
*1270 FILLER_0_772
*1271 FILLER_0_775
*1272 FILLER_0_779
*1273 FILLER_0_782
*1274 FILLER_0_798
*1275 FILLER_0_802
*1276 FILLER_0_804
*1277 FILLER_0_807
*1278 FILLER_0_822
*1279 FILLER_0_824
*1280 FILLER_0_83
*1281 FILLER_0_839
*1282 FILLER_0_842
*1283 FILLER_0_858
*1284 FILLER_0_87
*1285 FILLER_0_874
*1286 FILLER_0_877
*1287 FILLER_0_892
*1288 FILLER_0_908
*1289 FILLER_0_912
*1290 FILLER_0_927
*1291 FILLER_0_943
*1292 FILLER_0_947
*1293 FILLER_0_963
*1294 FILLER_0_97
*1295 FILLER_0_979
*1296 FILLER_0_982
*1297 FILLER_0_997
*1298 FILLER_100_101
*1299 FILLER_100_1024
*1300 FILLER_100_1028
*1301 FILLER_100_1031
*1302 FILLER_100_105
*1303 FILLER_100_108
*1304 FILLER_100_1095
*1305 FILLER_100_1099
*1306 FILLER_100_1102
*1307 FILLER_100_1166
*1308 FILLER_100_1170
*1309 FILLER_100_1173
*1310 FILLER_100_1237
*1311 FILLER_100_1241
*1312 FILLER_100_1244
*1313 FILLER_100_1308
*1314 FILLER_100_1312
*1315 FILLER_100_1315
*1316 FILLER_100_1379
*1317 FILLER_100_1383
*1318 FILLER_100_1386
*1319 FILLER_100_1450
*1320 FILLER_100_1454
*1321 FILLER_100_1457
*1322 FILLER_100_1521
*1323 FILLER_100_1525
*1324 FILLER_100_1528
*1325 FILLER_100_1560
*1326 FILLER_100_1576
*1327 FILLER_100_1580
*1328 FILLER_100_172
*1329 FILLER_100_176
*1330 FILLER_100_179
*1331 FILLER_100_2
*1332 FILLER_100_243
*1333 FILLER_100_247
*1334 FILLER_100_250
*1335 FILLER_100_314
*1336 FILLER_100_318
*1337 FILLER_100_321
*1338 FILLER_100_34
*1339 FILLER_100_37
*1340 FILLER_100_385
*1341 FILLER_100_389
*1342 FILLER_100_392
*1343 FILLER_100_456
*1344 FILLER_100_460
*1345 FILLER_100_463
*1346 FILLER_100_527
*1347 FILLER_100_531
*1348 FILLER_100_534
*1349 FILLER_100_598
*1350 FILLER_100_602
*1351 FILLER_100_605
*1352 FILLER_100_669
*1353 FILLER_100_673
*1354 FILLER_100_676
*1355 FILLER_100_740
*1356 FILLER_100_744
*1357 FILLER_100_747
*1358 FILLER_100_811
*1359 FILLER_100_815
*1360 FILLER_100_818
*1361 FILLER_100_882
*1362 FILLER_100_886
*1363 FILLER_100_889
*1364 FILLER_100_953
*1365 FILLER_100_957
*1366 FILLER_100_960
*1367 FILLER_101_1060
*1368 FILLER_101_1064
*1369 FILLER_101_1067
*1370 FILLER_101_1131
*1371 FILLER_101_1135
*1372 FILLER_101_1138
*1373 FILLER_101_1202
*1374 FILLER_101_1206
*1375 FILLER_101_1209
*1376 FILLER_101_1273
*1377 FILLER_101_1277
*1378 FILLER_101_1280
*1379 FILLER_101_1344
*1380 FILLER_101_1348
*1381 FILLER_101_1351
*1382 FILLER_101_137
*1383 FILLER_101_141
*1384 FILLER_101_1415
*1385 FILLER_101_1419
*1386 FILLER_101_1422
*1387 FILLER_101_144
*1388 FILLER_101_1486
*1389 FILLER_101_1490
*1390 FILLER_101_1493
*1391 FILLER_101_1557
*1392 FILLER_101_1561
*1393 FILLER_101_1564
*1394 FILLER_101_1580
*1395 FILLER_101_2
*1396 FILLER_101_208
*1397 FILLER_101_212
*1398 FILLER_101_215
*1399 FILLER_101_279
*1400 FILLER_101_283
*1401 FILLER_101_286
*1402 FILLER_101_350
*1403 FILLER_101_354
*1404 FILLER_101_357
*1405 FILLER_101_421
*1406 FILLER_101_425
*1407 FILLER_101_428
*1408 FILLER_101_492
*1409 FILLER_101_496
*1410 FILLER_101_499
*1411 FILLER_101_563
*1412 FILLER_101_567
*1413 FILLER_101_570
*1414 FILLER_101_634
*1415 FILLER_101_638
*1416 FILLER_101_641
*1417 FILLER_101_66
*1418 FILLER_101_70
*1419 FILLER_101_705
*1420 FILLER_101_709
*1421 FILLER_101_712
*1422 FILLER_101_73
*1423 FILLER_101_776
*1424 FILLER_101_780
*1425 FILLER_101_783
*1426 FILLER_101_847
*1427 FILLER_101_851
*1428 FILLER_101_854
*1429 FILLER_101_918
*1430 FILLER_101_922
*1431 FILLER_101_925
*1432 FILLER_101_989
*1433 FILLER_101_993
*1434 FILLER_101_996
*1435 FILLER_102_101
*1436 FILLER_102_1024
*1437 FILLER_102_1028
*1438 FILLER_102_1031
*1439 FILLER_102_105
*1440 FILLER_102_108
*1441 FILLER_102_1095
*1442 FILLER_102_1099
*1443 FILLER_102_1102
*1444 FILLER_102_1166
*1445 FILLER_102_1170
*1446 FILLER_102_1173
*1447 FILLER_102_1237
*1448 FILLER_102_1241
*1449 FILLER_102_1244
*1450 FILLER_102_1308
*1451 FILLER_102_1312
*1452 FILLER_102_1315
*1453 FILLER_102_1379
*1454 FILLER_102_1383
*1455 FILLER_102_1386
*1456 FILLER_102_1450
*1457 FILLER_102_1454
*1458 FILLER_102_1457
*1459 FILLER_102_1521
*1460 FILLER_102_1525
*1461 FILLER_102_1528
*1462 FILLER_102_1544
*1463 FILLER_102_1547
*1464 FILLER_102_1563
*1465 FILLER_102_1579
*1466 FILLER_102_172
*1467 FILLER_102_176
*1468 FILLER_102_179
*1469 FILLER_102_2
*1470 FILLER_102_21
*1471 FILLER_102_243
*1472 FILLER_102_247
*1473 FILLER_102_250
*1474 FILLER_102_29
*1475 FILLER_102_314
*1476 FILLER_102_318
*1477 FILLER_102_321
*1478 FILLER_102_33
*1479 FILLER_102_37
*1480 FILLER_102_385
*1481 FILLER_102_389
*1482 FILLER_102_392
*1483 FILLER_102_456
*1484 FILLER_102_460
*1485 FILLER_102_463
*1486 FILLER_102_5
*1487 FILLER_102_527
*1488 FILLER_102_531
*1489 FILLER_102_534
*1490 FILLER_102_598
*1491 FILLER_102_602
*1492 FILLER_102_605
*1493 FILLER_102_669
*1494 FILLER_102_673
*1495 FILLER_102_676
*1496 FILLER_102_740
*1497 FILLER_102_744
*1498 FILLER_102_747
*1499 FILLER_102_811
*1500 FILLER_102_815
*1501 FILLER_102_818
*1502 FILLER_102_882
*1503 FILLER_102_886
*1504 FILLER_102_889
*1505 FILLER_102_953
*1506 FILLER_102_957
*1507 FILLER_102_960
*1508 FILLER_103_1060
*1509 FILLER_103_1064
*1510 FILLER_103_1067
*1511 FILLER_103_1131
*1512 FILLER_103_1135
*1513 FILLER_103_1138
*1514 FILLER_103_1202
*1515 FILLER_103_1206
*1516 FILLER_103_1209
*1517 FILLER_103_1273
*1518 FILLER_103_1277
*1519 FILLER_103_1280
*1520 FILLER_103_1344
*1521 FILLER_103_1348
*1522 FILLER_103_1351
*1523 FILLER_103_137
*1524 FILLER_103_141
*1525 FILLER_103_1415
*1526 FILLER_103_1419
*1527 FILLER_103_1422
*1528 FILLER_103_144
*1529 FILLER_103_1486
*1530 FILLER_103_1490
*1531 FILLER_103_1493
*1532 FILLER_103_1557
*1533 FILLER_103_1561
*1534 FILLER_103_1564
*1535 FILLER_103_1580
*1536 FILLER_103_19
*1537 FILLER_103_2
*1538 FILLER_103_208
*1539 FILLER_103_212
*1540 FILLER_103_215
*1541 FILLER_103_279
*1542 FILLER_103_283
*1543 FILLER_103_286
*1544 FILLER_103_350
*1545 FILLER_103_354
*1546 FILLER_103_357
*1547 FILLER_103_421
*1548 FILLER_103_425
*1549 FILLER_103_428
*1550 FILLER_103_492
*1551 FILLER_103_496
*1552 FILLER_103_499
*1553 FILLER_103_51
*1554 FILLER_103_563
*1555 FILLER_103_567
*1556 FILLER_103_570
*1557 FILLER_103_634
*1558 FILLER_103_638
*1559 FILLER_103_641
*1560 FILLER_103_67
*1561 FILLER_103_705
*1562 FILLER_103_709
*1563 FILLER_103_712
*1564 FILLER_103_73
*1565 FILLER_103_776
*1566 FILLER_103_780
*1567 FILLER_103_783
*1568 FILLER_103_847
*1569 FILLER_103_851
*1570 FILLER_103_854
*1571 FILLER_103_918
*1572 FILLER_103_922
*1573 FILLER_103_925
*1574 FILLER_103_989
*1575 FILLER_103_993
*1576 FILLER_103_996
*1577 FILLER_104_101
*1578 FILLER_104_1024
*1579 FILLER_104_1028
*1580 FILLER_104_1031
*1581 FILLER_104_105
*1582 FILLER_104_108
*1583 FILLER_104_1095
*1584 FILLER_104_1099
*1585 FILLER_104_1102
*1586 FILLER_104_1166
*1587 FILLER_104_1170
*1588 FILLER_104_1173
*1589 FILLER_104_1237
*1590 FILLER_104_1241
*1591 FILLER_104_1244
*1592 FILLER_104_1308
*1593 FILLER_104_1312
*1594 FILLER_104_1315
*1595 FILLER_104_1379
*1596 FILLER_104_1383
*1597 FILLER_104_1386
*1598 FILLER_104_1450
*1599 FILLER_104_1454
*1600 FILLER_104_1457
*1601 FILLER_104_1521
*1602 FILLER_104_1525
*1603 FILLER_104_1528
*1604 FILLER_104_1560
*1605 FILLER_104_1576
*1606 FILLER_104_1580
*1607 FILLER_104_172
*1608 FILLER_104_176
*1609 FILLER_104_179
*1610 FILLER_104_2
*1611 FILLER_104_243
*1612 FILLER_104_247
*1613 FILLER_104_250
*1614 FILLER_104_314
*1615 FILLER_104_318
*1616 FILLER_104_321
*1617 FILLER_104_34
*1618 FILLER_104_37
*1619 FILLER_104_385
*1620 FILLER_104_389