*SPEF "ieee 1481-1999"
*DESIGN "user_proj_example"
*DATE "11:11:11 Fri 11 11, 1111"
*VENDOR "OpenRCX"
*PROGRAM "Parallel Extraction"
*VERSION "1.0"
*DESIGN_FLOW "NAME_SCOPE LOCAL" "PIN_CAP NONE"
*DIVIDER /
*DELIMITER :
*BUS_DELIMITER []
*T_UNIT 1 NS
*C_UNIT 1 PF
*R_UNIT 1 OHM
*L_UNIT 1 HENRY

*NAME_MAP
*1 io_in[0]
*2 io_in[10]
*3 io_in[11]
*4 io_in[12]
*5 io_in[13]
*6 io_in[14]
*7 io_in[15]
*8 io_in[16]
*9 io_in[17]
*10 io_in[18]
*11 io_in[19]
*12 io_in[1]
*13 io_in[20]
*14 io_in[21]
*15 io_in[22]
*16 io_in[23]
*17 io_in[24]
*18 io_in[25]
*19 io_in[26]
*20 io_in[27]
*21 io_in[28]
*22 io_in[29]
*23 io_in[2]
*24 io_in[30]
*25 io_in[31]
*26 io_in[32]
*27 io_in[33]
*28 io_in[34]
*29 io_in[35]
*30 io_in[36]
*31 io_in[37]
*32 io_in[3]
*33 io_in[4]
*34 io_in[5]
*35 io_in[6]
*36 io_in[7]
*37 io_in[8]
*38 io_in[9]
*39 net21
*40 net31
*41 net32
*42 net33
*43 net34
*44 net35
*45 net36
*46 net37
*47 net38
*48 net39
*49 net40
*50 net22
*51 net41
*52 net42
*53 net43
*54 net44
*55 net45
*56 net46
*57 net47
*58 net48
*59 net49
*60 net50
*61 net23
*62 net51
*63 net52
*64 net53
*65 net54
*66 net55
*67 net56
*68 net57
*69 net58
*70 net24
*71 net25
*72 net26
*73 net27
*74 net28
*75 net29
*76 net30
*77 net59
*78 io_out[10]
*79 io_out[11]
*80 io_out[12]
*81 io_out[13]
*82 io_out[14]
*83 io_out[15]
*84 io_out[16]
*85 io_out[17]
*86 io_out[18]
*87 io_out[19]
*88 net60
*89 io_out[20]
*90 io_out[21]
*91 net67
*92 net68
*93 net69
*94 net70
*95 net71
*96 net72
*97 net73
*98 net74
*99 net61
*100 net75
*101 net76
*102 net77
*103 net78
*104 net79
*105 net80
*106 net81
*107 net82
*108 net62
*109 net63
*110 net64
*111 net65
*112 net66
*113 io_out[8]
*114 io_out[9]
*115 la_data_in[0]
*116 la_data_in[10]
*117 la_data_in[11]
*118 la_data_in[12]
*119 la_data_in[13]
*120 la_data_in[14]
*121 la_data_in[15]
*122 la_data_in[16]
*123 la_data_in[17]
*124 la_data_in[18]
*125 la_data_in[19]
*126 la_data_in[1]
*127 la_data_in[20]
*128 la_data_in[21]
*129 la_data_in[22]
*130 la_data_in[23]
*131 la_data_in[24]
*132 la_data_in[25]
*133 la_data_in[26]
*134 la_data_in[27]
*135 la_data_in[28]
*136 la_data_in[29]
*137 la_data_in[2]
*138 la_data_in[30]
*139 la_data_in[31]
*140 la_data_in[32]
*141 la_data_in[33]
*142 la_data_in[34]
*143 la_data_in[35]
*144 la_data_in[36]
*145 la_data_in[37]
*146 la_data_in[38]
*147 la_data_in[39]
*148 la_data_in[3]
*149 la_data_in[40]
*150 la_data_in[41]
*151 la_data_in[42]
*152 la_data_in[43]
*153 la_data_in[44]
*154 la_data_in[45]
*155 la_data_in[46]
*156 la_data_in[47]
*157 la_data_in[48]
*158 la_data_in[49]
*159 la_data_in[4]
*160 la_data_in[50]
*161 la_data_in[51]
*162 la_data_in[52]
*163 la_data_in[53]
*164 la_data_in[54]
*165 la_data_in[55]
*166 la_data_in[56]
*167 la_data_in[57]
*168 la_data_in[58]
*169 la_data_in[59]
*170 la_data_in[5]
*171 la_data_in[60]
*172 la_data_in[61]
*173 la_data_in[62]
*174 la_data_in[63]
*175 la_data_in[6]
*176 la_data_in[7]
*177 la_data_in[8]
*178 la_data_in[9]
*179 net83
*180 net93
*181 net94
*182 net95
*183 net96
*184 net97
*185 net98
*186 net99
*187 net100
*188 net101
*189 net102
*190 net84
*191 net103
*192 net104
*193 net105
*194 net106
*195 net107
*196 net108
*197 net109
*198 net110
*199 net111
*200 net112
*201 net85
*202 net113
*203 net114
*204 net115
*205 net116
*206 net117
*207 net118
*208 net119
*209 net120
*210 net121
*211 net122
*212 net86
*213 net123
*214 net124
*215 net125
*216 net126
*217 net127
*218 net128
*219 net129
*220 net130
*221 net131
*222 net132
*223 net87
*224 net133
*225 net134
*226 net135
*227 net136
*228 net137
*229 net138
*230 net139
*231 net140
*232 net141
*233 net142
*234 net88
*235 net143
*236 net144
*237 net145
*238 net146
*239 net89
*240 net90
*241 net91
*242 net92
*243 la_oenb[0]
*244 la_oenb[10]
*245 la_oenb[11]
*246 la_oenb[12]
*247 la_oenb[13]
*248 la_oenb[14]
*249 la_oenb[15]
*250 la_oenb[16]
*251 la_oenb[17]
*252 la_oenb[18]
*253 la_oenb[19]
*254 la_oenb[1]
*255 la_oenb[20]
*256 la_oenb[21]
*257 la_oenb[22]
*258 la_oenb[23]
*259 la_oenb[24]
*260 la_oenb[25]
*261 la_oenb[26]
*262 la_oenb[27]
*263 la_oenb[28]
*264 la_oenb[29]
*265 la_oenb[2]
*266 la_oenb[30]
*267 la_oenb[31]
*268 la_oenb[32]
*269 la_oenb[33]
*270 la_oenb[34]
*271 la_oenb[35]
*272 la_oenb[36]
*273 la_oenb[37]
*274 la_oenb[38]
*275 la_oenb[39]
*276 la_oenb[3]
*277 la_oenb[40]
*278 la_oenb[41]
*279 la_oenb[42]
*280 la_oenb[43]
*281 la_oenb[44]
*282 la_oenb[45]
*283 la_oenb[46]
*284 la_oenb[47]
*285 la_oenb[48]
*286 la_oenb[49]
*287 la_oenb[4]
*288 la_oenb[50]
*289 la_oenb[51]
*290 la_oenb[52]
*291 la_oenb[53]
*292 la_oenb[54]
*293 la_oenb[55]
*294 la_oenb[56]
*295 la_oenb[57]
*296 la_oenb[58]
*297 la_oenb[59]
*298 la_oenb[5]
*299 la_oenb[60]
*300 la_oenb[61]
*301 la_oenb[62]
*302 la_oenb[63]
*303 la_oenb[6]
*304 la_oenb[7]
*305 la_oenb[8]
*306 la_oenb[9]
*307 user_clock2
*308 net147
*309 net148
*310 net149
*313 wb_clk_i
*314 wb_rst_i
*315 net182
*316 wbs_adr_i[0]
*317 wbs_adr_i[10]
*318 wbs_adr_i[11]
*319 wbs_adr_i[12]
*320 wbs_adr_i[13]
*321 wbs_adr_i[14]
*322 wbs_adr_i[15]
*323 wbs_adr_i[16]
*324 wbs_adr_i[17]
*325 wbs_adr_i[18]
*326 wbs_adr_i[19]
*327 wbs_adr_i[1]
*328 wbs_adr_i[20]
*329 wbs_adr_i[21]
*330 wbs_adr_i[22]
*331 wbs_adr_i[23]
*332 wbs_adr_i[24]
*333 wbs_adr_i[25]
*334 wbs_adr_i[26]
*335 wbs_adr_i[27]
*336 wbs_adr_i[28]
*337 wbs_adr_i[29]
*338 wbs_adr_i[2]
*339 wbs_adr_i[30]
*340 wbs_adr_i[31]
*341 wbs_adr_i[3]
*342 wbs_adr_i[4]
*343 wbs_adr_i[5]
*344 wbs_adr_i[6]
*345 wbs_adr_i[7]
*346 wbs_adr_i[8]
*347 wbs_adr_i[9]
*348 wbs_cyc_i
*349 wbs_dat_i[0]
*350 wbs_dat_i[10]
*351 wbs_dat_i[11]
*352 wbs_dat_i[12]
*353 wbs_dat_i[13]
*354 wbs_dat_i[14]
*355 wbs_dat_i[15]
*356 wbs_dat_i[16]
*357 wbs_dat_i[17]
*358 wbs_dat_i[18]
*359 wbs_dat_i[19]
*360 wbs_dat_i[1]
*361 wbs_dat_i[20]
*362 wbs_dat_i[21]
*363 wbs_dat_i[22]
*364 wbs_dat_i[23]
*365 wbs_dat_i[24]
*366 wbs_dat_i[25]
*367 wbs_dat_i[26]
*368 wbs_dat_i[27]
*369 wbs_dat_i[28]
*370 wbs_dat_i[29]
*371 wbs_dat_i[2]
*372 wbs_dat_i[30]
*373 wbs_dat_i[31]
*374 wbs_dat_i[3]
*375 wbs_dat_i[4]
*376 wbs_dat_i[5]
*377 wbs_dat_i[6]
*378 wbs_dat_i[7]
*379 wbs_dat_i[8]
*380 wbs_dat_i[9]
*381 net150
*382 net160
*383 net161
*384 net162
*385 net163
*386 net164
*387 net165
*388 net166
*389 net167
*390 net168
*391 net169
*392 net151
*393 net170
*394 net171
*395 net172
*396 net173
*397 net174
*398 net175
*399 net176
*400 net177
*401 net178
*402 net179
*403 net152
*404 net180
*405 net181
*406 net153
*407 net154
*408 net155
*409 net156
*410 net157
*411 net158
*412 net159
*413 wbs_sel_i[0]
*414 wbs_sel_i[1]
*415 wbs_sel_i[2]
*416 wbs_sel_i[3]
*417 wbs_stb_i
*418 wbs_we_i
*419 _000_
*420 _001_
*421 _002_
*422 _003_
*423 _004_
*424 _005_
*425 _006_
*426 _007_
*427 _008_
*428 _009_
*429 _010_
*430 clknet_0_wb_clk_i
*431 clknet_1_0__leaf_wb_clk_i
*432 clknet_1_1__leaf_wb_clk_i
*433 net1
*434 net10
*435 net11
*436 net12
*437 net13
*438 net14
*439 net15
*440 net16
*441 net17
*442 net18
*443 net19
*444 net2
*445 net20
*446 net3
*447 net4
*448 net5
*449 net6
*450 net7
*451 net8
*452 net9
*453 ANTENNA__011__I
*454 ANTENNA__012__I
*455 ANTENNA__013__I
*456 ANTENNA__014__I
*457 ANTENNA__015__A3
*458 ANTENNA__016__I
*459 ANTENNA__018__I
*460 ANTENNA__020__I
*461 ANTENNA__021__I
*462 ANTENNA__023__A1
*463 ANTENNA__023__A2
*464 ANTENNA__025__I
*465 ANTENNA__030__CLK
*466 ANTENNA__030__D
*467 ANTENNA__031__CLK
*468 ANTENNA__031__D
*469 ANTENNA__032__CLK
*470 ANTENNA__032__D
*471 ANTENNA__033__CLK
*472 ANTENNA__033__D
*473 ANTENNA__034__CLK
*474 ANTENNA__035__CLK
*475 ANTENNA__035__D
*476 ANTENNA_clkbuf_0_wb_clk_i_I
*477 ANTENNA_input1_I
*478 ANTENNA_input2_I
*479 ANTENNA_input3_I
*480 ANTENNA_input4_I
*481 ANTENNA_input5_I
*482 ANTENNA_input6_I
*483 ANTENNA_output10_I
*484 ANTENNA_output11_I
*485 ANTENNA_output12_I
*486 ANTENNA_output13_I
*487 ANTENNA_output14_I
*488 ANTENNA_output15_I
*489 ANTENNA_output16_I
*490 ANTENNA_output17_I
*491 ANTENNA_output18_I
*492 FILLER_0_1006
*493 FILLER_0_1008
*494 FILLER_0_1013
*495 FILLER_0_1017
*496 FILLER_0_1021
*497 FILLER_0_1023
*498 FILLER_0_1028
*499 FILLER_0_103
*500 FILLER_0_1036
*501 FILLER_0_1038
*502 FILLER_0_1043
*503 FILLER_0_1047
*504 FILLER_0_1049
*505 FILLER_0_1052
*506 FILLER_0_1058
*507 FILLER_0_1066
*508 FILLER_0_1068
*509 FILLER_0_107
*510 FILLER_0_1073
*511 FILLER_0_1081
*512 FILLER_0_1087
*513 FILLER_0_1092
*514 FILLER_0_1096
*515 FILLER_0_1098
*516 FILLER_0_1103
*517 FILLER_0_1111
*518 FILLER_0_1113
*519 FILLER_0_1118
*520 FILLER_0_1122
*521 FILLER_0_1126
*522 FILLER_0_1128
*523 FILLER_0_1133
*524 FILLER_0_1141
*525 FILLER_0_1143
*526 FILLER_0_1148
*527 FILLER_0_115
*528 FILLER_0_1152
*529 FILLER_0_1154
*530 FILLER_0_1157
*531 FILLER_0_1163
*532 FILLER_0_1171
*533 FILLER_0_1173
*534 FILLER_0_1178
*535 FILLER_0_1186
*536 FILLER_0_1192
*537 FILLER_0_1197
*538 FILLER_0_1201
*539 FILLER_0_1203
*540 FILLER_0_1208
*541 FILLER_0_1216
*542 FILLER_0_1218
*543 FILLER_0_1223
*544 FILLER_0_1227
*545 FILLER_0_123
*546 FILLER_0_1231
*547 FILLER_0_1233
*548 FILLER_0_1238
*549 FILLER_0_1246
*550 FILLER_0_1248
*551 FILLER_0_1253
*552 FILLER_0_1257
*553 FILLER_0_1259
*554 FILLER_0_1262
*555 FILLER_0_1268
*556 FILLER_0_1276
*557 FILLER_0_1278
*558 FILLER_0_1283
*559 FILLER_0_1291
*560 FILLER_0_1297
*561 FILLER_0_1302
*562 FILLER_0_1306
*563 FILLER_0_1308
*564 FILLER_0_1313
*565 FILLER_0_1321
*566 FILLER_0_1323
*567 FILLER_0_1328
*568 FILLER_0_1332
*569 FILLER_0_1336
*570 FILLER_0_1338
*571 FILLER_0_1343
*572 FILLER_0_1351
*573 FILLER_0_1353
*574 FILLER_0_1358
*575 FILLER_0_1362
*576 FILLER_0_1364
*577 FILLER_0_1367
*578 FILLER_0_1373
*579 FILLER_0_1381
*580 FILLER_0_1383
*581 FILLER_0_1388
*582 FILLER_0_139
*583 FILLER_0_1396
*584 FILLER_0_1402
*585 FILLER_0_1407
*586 FILLER_0_1411
*587 FILLER_0_1413
*588 FILLER_0_1418
*589 FILLER_0_142
*590 FILLER_0_1426
*591 FILLER_0_1428
*592 FILLER_0_1433
*593 FILLER_0_1437
*594 FILLER_0_1441
*595 FILLER_0_1443
*596 FILLER_0_1448
*597 FILLER_0_1456
*598 FILLER_0_1458
*599 FILLER_0_1463
*600 FILLER_0_1467
*601 FILLER_0_1469
*602 FILLER_0_147
*603 FILLER_0_1472
*604 FILLER_0_1478
*605 FILLER_0_1486
*606 FILLER_0_1488
*607 FILLER_0_1493
*608 FILLER_0_1501
*609 FILLER_0_1507
*610 FILLER_0_1512
*611 FILLER_0_1516
*612 FILLER_0_1518
*613 FILLER_0_1523
*614 FILLER_0_1531
*615 FILLER_0_1533
*616 FILLER_0_1538
*617 FILLER_0_1542
*618 FILLER_0_1547
*619 FILLER_0_155
*620 FILLER_0_1553
*621 FILLER_0_1569
*622 FILLER_0_1573
*623 FILLER_0_1577
*624 FILLER_0_163
*625 FILLER_0_171
*626 FILLER_0_177
*627 FILLER_0_182
*628 FILLER_0_186
*629 FILLER_0_188
*630 FILLER_0_193
*631 FILLER_0_2
*632 FILLER_0_201
*633 FILLER_0_203
*634 FILLER_0_208
*635 FILLER_0_212
*636 FILLER_0_216
*637 FILLER_0_218
*638 FILLER_0_223
*639 FILLER_0_23
*640 FILLER_0_231
*641 FILLER_0_233
*642 FILLER_0_238
*643 FILLER_0_242
*644 FILLER_0_244
*645 FILLER_0_247
*646 FILLER_0_253
*647 FILLER_0_261
*648 FILLER_0_263
*649 FILLER_0_268
*650 FILLER_0_276
*651 FILLER_0_282
*652 FILLER_0_287
*653 FILLER_0_291
*654 FILLER_0_293
*655 FILLER_0_298
*656 FILLER_0_306
*657 FILLER_0_308
*658 FILLER_0_31
*659 FILLER_0_313
*660 FILLER_0_317
*661 FILLER_0_321
*662 FILLER_0_323
*663 FILLER_0_328
*664 FILLER_0_336
*665 FILLER_0_338
*666 FILLER_0_343
*667 FILLER_0_347
*668 FILLER_0_349
*669 FILLER_0_352
*670 FILLER_0_358
*671 FILLER_0_366
*672 FILLER_0_368
*673 FILLER_0_37
*674 FILLER_0_373
*675 FILLER_0_381
*676 FILLER_0_387
*677 FILLER_0_392
*678 FILLER_0_396
*679 FILLER_0_398
*680 FILLER_0_403
*681 FILLER_0_411
*682 FILLER_0_413
*683 FILLER_0_418
*684 FILLER_0_422
*685 FILLER_0_426
*686 FILLER_0_428
*687 FILLER_0_433
*688 FILLER_0_441
*689 FILLER_0_443
*690 FILLER_0_448
*691 FILLER_0_45
*692 FILLER_0_452
*693 FILLER_0_454
*694 FILLER_0_457
*695 FILLER_0_463
*696 FILLER_0_471
*697 FILLER_0_473
*698 FILLER_0_478
*699 FILLER_0_486
*700 FILLER_0_492
*701 FILLER_0_497
*702 FILLER_0_501
*703 FILLER_0_503
*704 FILLER_0_508
*705 FILLER_0_516
*706 FILLER_0_518
*707 FILLER_0_523
*708 FILLER_0_527
*709 FILLER_0_53
*710 FILLER_0_531
*711 FILLER_0_533
*712 FILLER_0_538
*713 FILLER_0_546
*714 FILLER_0_548
*715 FILLER_0_553
*716 FILLER_0_557
*717 FILLER_0_559
*718 FILLER_0_562
*719 FILLER_0_568
*720 FILLER_0_572
*721 FILLER_0_578
*722 FILLER_0_586
*723 FILLER_0_588
*724 FILLER_0_593
*725 FILLER_0_597
*726 FILLER_0_601
*727 FILLER_0_603
*728 FILLER_0_608
*729 FILLER_0_616
*730 FILLER_0_618
*731 FILLER_0_623
*732 FILLER_0_627
*733 FILLER_0_629
*734 FILLER_0_632
*735 FILLER_0_638
*736 FILLER_0_646
*737 FILLER_0_648
*738 FILLER_0_653
*739 FILLER_0_661
*740 FILLER_0_667
*741 FILLER_0_672
*742 FILLER_0_676
*743 FILLER_0_678
*744 FILLER_0_683
*745 FILLER_0_69
*746 FILLER_0_691
*747 FILLER_0_693
*748 FILLER_0_698
*749 FILLER_0_7
*750 FILLER_0_702
*751 FILLER_0_706
*752 FILLER_0_708
*753 FILLER_0_713
*754 FILLER_0_72
*755 FILLER_0_721
*756 FILLER_0_723
*757 FILLER_0_728
*758 FILLER_0_732
*759 FILLER_0_734
*760 FILLER_0_737
*761 FILLER_0_743
*762 FILLER_0_751
*763 FILLER_0_753
*764 FILLER_0_758
*765 FILLER_0_76
*766 FILLER_0_766
*767 FILLER_0_772
*768 FILLER_0_777
*769 FILLER_0_78
*770 FILLER_0_781
*771 FILLER_0_783
*772 FILLER_0_788
*773 FILLER_0_796
*774 FILLER_0_798
*775 FILLER_0_803
*776 FILLER_0_807
*777 FILLER_0_811
*778 FILLER_0_813
*779 FILLER_0_818
*780 FILLER_0_826
*781 FILLER_0_828
*782 FILLER_0_83
*783 FILLER_0_833
*784 FILLER_0_837
*785 FILLER_0_839
*786 FILLER_0_842
*787 FILLER_0_848
*788 FILLER_0_856
*789 FILLER_0_858
*790 FILLER_0_863
*791 FILLER_0_871
*792 FILLER_0_877
*793 FILLER_0_882
*794 FILLER_0_886
*795 FILLER_0_888
*796 FILLER_0_893
*797 FILLER_0_901
*798 FILLER_0_903
*799 FILLER_0_908
*800 FILLER_0_912
*801 FILLER_0_916
*802 FILLER_0_918
*803 FILLER_0_923
*804 FILLER_0_931
*805 FILLER_0_933
*806 FILLER_0_938
*807 FILLER_0_942
*808 FILLER_0_944
*809 FILLER_0_947
*810 FILLER_0_953
*811 FILLER_0_961
*812 FILLER_0_963
*813 FILLER_0_968
*814 FILLER_0_976
*815 FILLER_0_982
*816 FILLER_0_987
*817 FILLER_0_991
*818 FILLER_0_993
*819 FILLER_0_998
*820 FILLER_100_101
*821 FILLER_100_1024
*822 FILLER_100_1028
*823 FILLER_100_1031
*824 FILLER_100_105
*825 FILLER_100_108
*826 FILLER_100_1095
*827 FILLER_100_1099
*828 FILLER_100_1102
*829 FILLER_100_1166
*830 FILLER_100_1170
*831 FILLER_100_1173
*832 FILLER_100_1237
*833 FILLER_100_1241
*834 FILLER_100_1244
*835 FILLER_100_1308
*836 FILLER_100_1312
*837 FILLER_100_1315
*838 FILLER_100_1379
*839 FILLER_100_1383
*840 FILLER_100_1386
*841 FILLER_100_1450
*842 FILLER_100_1454
*843 FILLER_100_1457
*844 FILLER_100_1521
*845 FILLER_100_1525
*846 FILLER_100_1528
*847 FILLER_100_1560
*848 FILLER_100_1576
*849 FILLER_100_1580
*850 FILLER_100_172
*851 FILLER_100_176
*852 FILLER_100_179
*853 FILLER_100_2
*854 FILLER_100_243
*855 FILLER_100_247
*856 FILLER_100_250
*857 FILLER_100_314
*858 FILLER_100_318
*859 FILLER_100_321
*860 FILLER_100_34
*861 FILLER_100_37
*862 FILLER_100_385
*863 FILLER_100_389
*864 FILLER_100_392
*865 FILLER_100_456
*866 FILLER_100_460
*867 FILLER_100_463
*868 FILLER_100_527
*869 FILLER_100_531
*870 FILLER_100_534
*871 FILLER_100_598
*872 FILLER_100_602
*873 FILLER_100_605
*874 FILLER_100_669
*875 FILLER_100_673
*876 FILLER_100_676
*877 FILLER_100_740
*878 FILLER_100_744
*879 FILLER_100_747
*880 FILLER_100_811
*881 FILLER_100_815
*882 FILLER_100_818
*883 FILLER_100_882
*884 FILLER_100_886
*885 FILLER_100_889
*886 FILLER_100_953
*887 FILLER_100_957
*888 FILLER_100_960
*889 FILLER_101_1060
*890 FILLER_101_1064
*891 FILLER_101_1067
*892 FILLER_101_1131
*893 FILLER_101_1135
*894 FILLER_101_1138
*895 FILLER_101_1202
*896 FILLER_101_1206
*897 FILLER_101_1209
*898 FILLER_101_1273
*899 FILLER_101_1277
*900 FILLER_101_1280
*901 FILLER_101_1344
*902 FILLER_101_1348
*903 FILLER_101_1351
*904 FILLER_101_137
*905 FILLER_101_141
*906 FILLER_101_1415
*907 FILLER_101_1419
*908 FILLER_101_1422
*909 FILLER_101_144
*910 FILLER_101_1486
*911 FILLER_101_1490
*912 FILLER_101_1493
*913 FILLER_101_1496
*914 FILLER_101_1548
*915 FILLER_101_1556
*916 FILLER_101_1560
*917 FILLER_101_1564
*918 FILLER_101_1580
*919 FILLER_101_2
*920 FILLER_101_208
*921 FILLER_101_212
*922 FILLER_101_215
*923 FILLER_101_279
*924 FILLER_101_283
*925 FILLER_101_286
*926 FILLER_101_350
*927 FILLER_101_354
*928 FILLER_101_357
*929 FILLER_101_421
*930 FILLER_101_425
*931 FILLER_101_428
*932 FILLER_101_492
*933 FILLER_101_496
*934 FILLER_101_499
*935 FILLER_101_563
*936 FILLER_101_567
*937 FILLER_101_570
*938 FILLER_101_634
*939 FILLER_101_638
*940 FILLER_101_641
*941 FILLER_101_66
*942 FILLER_101_70
*943 FILLER_101_705
*944 FILLER_101_709
*945 FILLER_101_712
*946 FILLER_101_73
*947 FILLER_101_776
*948 FILLER_101_780
*949 FILLER_101_783
*950 FILLER_101_847
*951 FILLER_101_851
*952 FILLER_101_854
*953 FILLER_101_918
*954 FILLER_101_922
*955 FILLER_101_925
*956 FILLER_101_989
*957 FILLER_101_993
*958 FILLER_101_996
*959 FILLER_102_101
*960 FILLER_102_1024
*961 FILLER_102_1028
*962 FILLER_102_1031
*963 FILLER_102_105
*964 FILLER_102_108
*965 FILLER_102_1095
*966 FILLER_102_1099
*967 FILLER_102_1102
*968 FILLER_102_1166
*969 FILLER_102_1170
*970 FILLER_102_1173
*971 FILLER_102_1237
*972 FILLER_102_1241
*973 FILLER_102_1244
*974 FILLER_102_1308
*975 FILLER_102_1312
*976 FILLER_102_1315
*977 FILLER_102_1379
*978 FILLER_102_1383
*979 FILLER_102_1386
*980 FILLER_102_1450
*981 FILLER_102_1454
*982 FILLER_102_1457
*983 FILLER_102_1521
*984 FILLER_102_1525
*985 FILLER_102_1528
*986 FILLER_102_1560
*987 FILLER_102_1564
*988 FILLER_102_1580
*989 FILLER_102_172
*990 FILLER_102_176
*991 FILLER_102_179
*992 FILLER_102_2
*993 FILLER_102_243
*994 FILLER_102_247
*995 FILLER_102_250
*996 FILLER_102_314
*997 FILLER_102_318
*998 FILLER_102_321
*999 FILLER_102_34
*1000 FILLER_102_37
*1001 FILLER_102_385
*1002 FILLER_102_389
*1003 FILLER_102_392
*1004 FILLER_102_456
*1005 FILLER_102_460
*1006 FILLER_102_463
*1007 FILLER_102_527
*1008 FILLER_102_531
*1009 FILLER_102_534
*1010 FILLER_102_598
*1011 FILLER_102_602
*1012 FILLER_102_605
*1013 FILLER_102_669
*1014 FILLER_102_673
*1015 FILLER_102_676
*1016 FILLER_102_740
*1017 FILLER_102_744
*1018 FILLER_102_747
*1019 FILLER_102_811
*1020 FILLER_102_815
*1021 FILLER_102_818
*1022 FILLER_102_882
*1023 FILLER_102_886
*1024 FILLER_102_889
*1025 FILLER_102_953
*1026 FILLER_102_957
*1027 FILLER_102_960
*1028 FILLER_103_1060
*1029 FILLER_103_1064
*1030 FILLER_103_1067
*1031 FILLER_103_1131
*1032 FILLER_103_1135
*1033 FILLER_103_1138
*1034 FILLER_103_1202
*1035 FILLER_103_1206
*1036 FILLER_103_1209
*1037 FILLER_103_1273
*1038 FILLER_103_1277
*1039 FILLER_103_1280
*1040 FILLER_103_1344
*1041 FILLER_103_1348
*1042 FILLER_103_1351
*1043 FILLER_103_137
*1044 FILLER_103_141
*1045 FILLER_103_1415
*1046 FILLER_103_1419
*1047 FILLER_103_1422
*1048 FILLER_103_144
*1049 FILLER_103_1486
*1050 FILLER_103_1490
*1051 FILLER_103_1493
*1052 FILLER_103_1544
*1053 FILLER_103_1560
*1054 FILLER_103_1564
*1055 FILLER_103_1580
*1056 FILLER_103_2
*1057 FILLER_103_208
*1058 FILLER_103_212
*1059 FILLER_103_215
*1060 FILLER_103_279
*1061 FILLER_103_283
*1062 FILLER_103_286
*1063 FILLER_103_350
*1064 FILLER_103_354
*1065 FILLER_103_357
*1066 FILLER_103_421
*1067 FILLER_103_425
*1068 FILLER_103_428
*1069 FILLER_103_492
*1070 FILLER_103_496
*1071 FILLER_103_499
*1072 FILLER_103_563
*1073 FILLER_103_567
*1074 FILLER_103_570
*1075 FILLER_103_634
*1076 FILLER_103_638
*1077 FILLER_103_641
*1078 FILLER_103_66
*1079 FILLER_103_70
*1080 FILLER_103_705
*1081 FILLER_103_709
*1082 FILLER_103_712
*1083 FILLER_103_73
*1084 FILLER_103_776
*1085 FILLER_103_780
*1086 FILLER_103_783
*1087 FILLER_103_847
*1088 FILLER_103_851
*1089 FILLER_103_854
*1090 FILLER_103_918
*1091 FILLER_103_922
*1092 FILLER_103_925
*1093 FILLER_103_989
*1094 FILLER_103_993
*1095 FILLER_103_996
*1096 FILLER_104_101
*1097 FILLER_104_1024
*1098 FILLER_104_1028
*1099 FILLER_104_1031
*1100 FILLER_104_105
*1101 FILLER_104_108
*1102 FILLER_104_1095
*1103 FILLER_104_1099
*1104 FILLER_104_1102
*1105 FILLER_104_1166
*1106 FILLER_104_1170
*1107 FILLER_104_1173
*1108 FILLER_104_1237
*1109 FILLER_104_1241
*1110 FILLER_104_1244
*1111 FILLER_104_1308
*1112 FILLER_104_1312
*1113 FILLER_104_1315
*1114 FILLER_104_1379
*1115 FILLER_104_1383
*1116 FILLER_104_1386
*1117 FILLER_104_1450
*1118 FILLER_104_1454
*1119 FILLER_104_1457
*1120 FILLER_104_1521
*1121 FILLER_104_1525
*1122 FILLER_104_1528
*1123 FILLER_104_1560
*1124 FILLER_104_1576
*1125 FILLER_104_1580
*1126 FILLER_104_172
*1127 FILLER_104_176
*1128 FILLER_104_179
*1129 FILLER_104_2
*1130 FILLER_104_243
*1131 FILLER_104_247
*1132 FILLER_104_250
*1133 FILLER_104_314
*1134 FILLER_104_318
*1135 FILLER_104_321
*1136 FILLER_104_34
*1137 FILLER_104_37
*1138 FILLER_104_385
*1139 FILLER_104_389
*1140 FILLER_104_392
*1141 FILLER_104_456
*1142 FILLER_104_460
*1143 FILLER_104_463
*1144 FILLER_104_527
*1145 FILLER_104_531
*1146 FILLER_104_534
*1147 FILLER_104_598
*1148 FILLER_104_602
*1149 FILLER_104_605
*1150 FILLER_104_669
*1151 FILLER_104_673
*1152 FILLER_104_676
*1153 FILLER_104_740
*1154 FILLER_104_744
*1155 FILLER_104_747
*1156 FILLER_104_811
*1157 FILLER_104_815
*1158 FILLER_104_818
*1159 FILLER_104_882
*1160 FILLER_104_886
*1161 FILLER_104_889
*1162 FILLER_104_953
*1163 FILLER_104_957
*1164 FILLER_104_960
*1165 FILLER_105_1060
*1166 FILLER_105_1064
*1167 FILLER_105_1067
*1168 FILLER_105_1131
*1169 FILLER_105_1135
*1170 FILLER_105_1138
*1171 FILLER_105_1202
*1172 FILLER_105_1206
*1173 FILLER_105_1209
*1174 FILLER_105_1273
*1175 FILLER_105_1277
*1176 FILLER_105_1280
*1177 FILLER_105_1344
*1178 FILLER_105_1348
*1179 FILLER_105_1351
*1180 FILLER_105_137
*1181 FILLER_105_141
*1182 FILLER_105_1415
*1183 FILLER_105_1419
*1184 FILLER_105_1422
*1185 FILLER_105_144
*1186 FILLER_105_1486
*1187 FILLER_105_1490
*1188 FILLER_105_1493
*1189 FILLER_105_1557
*1190 FILLER_105_1561
*1191 FILLER_105_1564
*1192 FILLER_105_1572
*1193 FILLER_105_1580
*1194 FILLER_105_2
*1195 FILLER_105_208
*1196 FILLER_105_212
*1197 FILLER_105_215
*1198 FILLER_105_279
*1199 FILLER_105_283
*1200 FILLER_105_286
*1201 FILLER_105_350
*1202 FILLER_105_354
*1203 FILLER_105_357
*1204 FILLER_105_421
*1205 FILLER_105_425
*1206 FILLER_105_428
*1207 FILLER_105_492
*1208 FILLER_105_496
*1209 FILLER_105_499
*1210 FILLER_105_563
*1211 FILLER_105_567
*1212 FILLER_105_570
*1213 FILLER_105_634
*1214 FILLER_105_638
*1215 FILLER_105_641
*1216 FILLER_105_66
*1217 FILLER_105_70
*1218 FILLER_105_705
*1219 FILLER_105_709
*1220 FILLER_105_712
*1221 FILLER_105_73
*1222 FILLER_105_776
*1223 FILLER_105_780
*1224 FILLER_105_783
*1225 FILLER_105_847
*1226 FILLER_105_851
*1227 FILLER_105_854
*1228 FILLER_105_918
*1229 FILLER_105_922
*1230 FILLER_105_925
*1231 FILLER_105_989
*1232 FILLER_105_993
*1233 FILLER_105_996
*1234 FILLER_106_101
*1235 FILLER_106_1024
*1236 FILLER_106_1028
*1237 FILLER_106_1031
*1238 FILLER_106_105
*1239 FILLER_106_108
*1240 FILLER_106_1095
*1241 FILLER_106_1099
*1242 FILLER_106_1102
*1243 FILLER_106_1166
*1244 FILLER_106_1170
*1245 FILLER_106_1173
*1246 FILLER_106_1237
*1247 FILLER_106_1241
*1248 FILLER_106_1244
*1249 FILLER_106_1308
*1250 FILLER_106_1312
*1251 FILLER_106_1315
*1252 FILLER_106_1379
*1253 FILLER_106_1383
*1254 FILLER_106_1386
*1255 FILLER_106_1450
*1256 FILLER_106_1454
*1257 FILLER_106_1457
*1258 FILLER_106_1521
*1259 FILLER_106_1525
*1260 FILLER_106_1528
*1261 FILLER_106_1560
*1262 FILLER_106_1576
*1263 FILLER_106_1580
*1264 FILLER_106_172
*1265 FILLER_106_176
*1266 FILLER_106_179
*1267 FILLER_106_2
*1268 FILLER_106_23
*1269 FILLER_106_243
*1270 FILLER_106_247
*1271 FILLER_106_250
*1272 FILLER_106_31
*1273 FILLER_106_314
*1274 FILLER_106_318
*1275 FILLER_106_321
*1276 FILLER_106_37
*1277 FILLER_106_385
*1278 FILLER_106_389
*1279 FILLER_106_392
*1280 FILLER_106_456
*1281 FILLER_106_460
*1282 FILLER_106_463
*1283 FILLER_106_527
*1284 FILLER_106_531
*1285 FILLER_106_534
*1286 FILLER_106_598
*1287 FILLER_106_602
*1288 FILLER_106_605
*1289 FILLER_106_669
*1290 FILLER_106_673
*1291 FILLER_106_676
*1292 FILLER_106_7
*1293 FILLER_106_740
*1294 FILLER_106_744
*1295 FILLER_106_747
*1296 FILLER_106_811
*1297 FILLER_106_815
*1298 FILLER_106_818
*1299 FILLER_106_882
*1300 FILLER_106_886
*1301 FILLER_106_889
*1302 FILLER_106_953
*1303 FILLER_106_957
*1304 FILLER_106_960
*1305 FILLER_107_1060
*1306 FILLER_107_1064
*1307 FILLER_107_1067
*1308 FILLER_107_1131
*1309 FILLER_107_1135
*1310 FILLER_107_1138
*1311 FILLER_107_1202
*1312 FILLER_107_1206
*1313 FILLER_107_1209
*1314 FILLER_107_1273
*1315 FILLER_107_1277
*1316 FILLER_107_1280
*1317 FILLER_107_1344
*1318 FILLER_107_1348
*1319 FILLER_107_1351
*1320 FILLER_107_137
*1321 FILLER_107_141
*1322 FILLER_107_1415
*1323 FILLER_107_1419
*1324 FILLER_107_1422
*1325 FILLER_107_144
*1326 FILLER_107_1486
*1327 FILLER_107_1490
*1328 FILLER_107_1493
*1329 FILLER_107_1557
*1330 FILLER_107_1561
*1331 FILLER_107_1564
*1332 FILLER_107_1580
*1333 FILLER_107_2
*1334 FILLER_107_208
*1335 FILLER_107_212
*1336 FILLER_107_215
*1337 FILLER_107_279
*1338 FILLER_107_283
*1339 FILLER_107_286
*1340 FILLER_107_350
*1341 FILLER_107_354
*1342 FILLER_107_357
*1343 FILLER_107_421
*1344 FILLER_107_425
*1345 FILLER_107_428
*1346 FILLER_107_492
*1347 FILLER_107_496
*1348 FILLER_107_499
*1349 FILLER_107_563
*1350 FILLER_107_567
*1351 FILLER_107_570
*1352 FILLER_107_634
*1353 FILLER_107_638
*1354 FILLER_107_641
*1355 FILLER_107_66
*1356 FILLER_107_70
*1357 FILLER_107_705
*1358 FILLER_107_709
*1359 FILLER_107_712
*1360 FILLER_107_73
*1361 FILLER_107_776
*1362 FILLER_107_780
*1363 FILLER_107_783
*1364 FILLER_107_847
*1365 FILLER_107_851
*1366 FILLER_107_854
*1367 FILLER_107_918
*1368 FILLER_107_922
*1369 FILLER_107_925
*1370 FILLER_107_989
*1371 FILLER_107_993
*1372 FILLER_107_996
*1373 FILLER_108_101
*1374 FILLER_108_1024
*1375 FILLER_108_1028
*1376 FILLER_108_1031
*1377 FILLER_108_105
*1378 FILLER_108_108
*1379 FILLER_108_1095
*1380 FILLER_108_1099
*1381 FILLER_108_1102
*1382 FILLER_108_1166
*1383 FILLER_108_1170
*1384 FILLER_108_1173
*1385 FILLER_108_1237
*1386 FILLER_108_1241
*1387 FILLER_108_1244
*1388 FILLER_108_1308
*1389 FILLER_108_1312
*1390 FILLER_108_1315
*1391 FILLER_108_1379
*1392 FILLER_108_1383
*1393 FILLER_108_1386
*1394 FILLER_108_1450
*1395 FILLER_108_1454
*1396 FILLER_108_1457
*1397 FILLER_108_1521
*1398 FILLER_108_1525
*1399 FILLER_108_1528
*1400 FILLER_108_1560
*1401 FILLER_108_1576
*1402 FILLER_108_1580
*1403 FILLER_108_172
*1404 FILLER_108_176
*1405 FILLER_108_179
*1406 FILLER_108_2
*1407 FILLER_108_243
*1408 FILLER_108_247
*1409 FILLER_108_250
*1410 FILLER_108_314
*1411 FILLER_108_318
*1412 FILLER_108_321
*1413 FILLER_108_34
*1414 FILLER_108_37
*1415 FILLER_108_385
*1416 FILLER_108_389
*1417 FILLER_108_392
*1418 FILLER_108_456
*1419 FILLER_108_460
*1420 FILLER_108_463
*1421 FILLER_108_527
*1422 FILLER_108_531
*1423 FILLER_108_534
*1424 FILLER_108_598
*1425 FILLER_108_602
*1426 FILLER_108_605
*1427 FILLER_108_669
*1428 FILLER_108_673
*1429 FILLER_108_676
*1430 FILLER_108_740
*1431 FILLER_108_744
*1432 FILLER_108_747
*1433 FILLER_108_811
*1434 FILLER_108_815
*1435 FILLER_108_818
*1436 FILLER_108_882
*1437 FILLER_108_886
*1438 FILLER_108_889
*1439 FILLER_108_953
*1440 FILLER_108_957
*1441 FILLER_108_960
*1442 FILLER_109_1060
*1443 FILLER_109_1064
*1444 FILLER_109_1067
*1445 FILLER_109_1131
*1446 FILLER_109_1135
*1447 FILLER_109_1138
*1448 FILLER_109_1202
*1449 FILLER_109_1206
*1450 FILLER_109_1209
*1451 FILLER_109_1273
*1452 FILLER_109_1277
*1453 FILLER_109_1280
*1454 FILLER_109_1344
*1455 FILLER_109_1348
*1456 FILLER_109_1351
*1457 FILLER_109_137
*1458 FILLER_109_141
*1459 FILLER_109_1415
*1460 FILLER_109_1419
*1461 FILLER_109_1422
*1462 FILLER_109_144
*1463 FILLER_109_1486
*1464 FILLER_109_1490
*1465 FILLER_109_1493
*1466 FILLER_109_1557
*1467 FILLER_109_1561
*1468 FILLER_109_1564
*1469 FILLER_109_1568
*1470 FILLER_109_1572
*1471 FILLER_109_1580
*1472 FILLER_109_2
*1473 FILLER_109_208
*1474 FILLER_109_212
*1475 FILLER_109_215
*1476 FILLER_109_279
*1477 FILLER_109_283
*1478 FILLER_109_286
*1479 FILLER_109_350
*1480 FILLER_109_354
*1481 FILLER_109_357
*1482 FILLER_109_421
*1483 FILLER_109_425
*1484 FILLER_109_428
*1485 FILLER_109_492
*1486 FILLER_109_496
*1487 FILLER_109_499
*1488 FILLER_109_563
*1489 FILLER_109_567
*1490 FILLER_109_570
*1491 FILLER_109_634
*1492 FILLER_109_638
*1493 FILLER_109_641
*1494 FILLER_109_66
*1495 FILLER_109_70
*1496 FILLER_109_705
*1497 FILLER_109_709
*1498 FILLER_109_712
*1499 FILLER_109_73
*1500 FILLER_109_776
*1501 FILLER_109_780
*1502 FILLER_109_783
*1503 FILLER_109_847
*1504 FILLER_109_851
*1505 FILLER_109_854
*1506 FILLER_109_918
*1507 FILLER_109_922
*1508 FILLER_109_925
*1509 FILLER_109_989
*1510 FILLER_109_993
*1511 FILLER_109_996
*1512 FILLER_10_101
*1513 FILLER_10_1024
*1514 FILLER_10_1028
*1515 FILLER_10_1031
*1516 FILLER_10_105
*1517 FILLER_10_108
*1518 FILLER_10_1095
*1519 FILLER_10_1099
*1520 FILLER_10_1102
*1521 FILLER_10_1166
*1522 FILLER_10_1170
*1523 FILLER_10_1173
*1524 FILLER_10_1237
*1525 FILLER_10_1241
*1526 FILLER_10_1244
*1527 FILLER_10_1308
*1528 FILLER_10_1312
*1529 FILLER_10_1315
*1530 FILLER_10_1379
*1531 FILLER_10_1383
*1532 FILLER_10_1386
*1533 FILLER_10_1450
*1534 FILLER_10_1454
*1535 FILLER_10_1457
*1536 FILLER_10_1521
*1537 FILLER_10_1525
*1538 FILLER_10_1528
*1539 FILLER_10_1560
*1540 FILLER_10_1576
*1541 FILLER_10_1580
*1542 FILLER_10_172
*1543 FILLER_10_176
*1544 FILLER_10_179
*1545 FILLER_10_2
*1546 FILLER_10_23
*1547 FILLER_10_243
*1548 FILLER_10_247
*1549 FILLER_10_250
*1550 FILLER_10_31
*1551 FILLER_10_314
*1552 FILLER_10_318
*1553 FILLER_10_321
*1554 FILLER_10_37
*1555 FILLER_10_385
*1556 FILLER_10_389
*1557 FILLER_10_392
*1558 FILLER_10_456
*1559 FILLER_10_460
*1560 FILLER_10_463
*1561 FILLER_10_527
*1562 FILLER_10_531
*1563 FILLER_10_534
*1564 FILLER_10_598
*1565 FILLER_10_602
*1566 FILLER_10_605
*1567 FILLER_10_669
*1568 FILLER_10_673
*1569 FILLER_10_676
*1570 FILLER_10_7
*1571 FILLER_10_740
*1572 FILLER_10_744
*1573 FILLER_10_747
*1574 FILLER_10_811
*1575 FILLER_10_815
*1576 FILLER_10_818
*1577 FILLER_10_882
*1578 FILLER_10_886
*1579 FILLER_10_889
*1580 FILLER_10_953
*1581 FILLER_10_957
*1582 FILLER_10_960
*1583 FILLER_110_101
*1584 FILLER_110_1024
*1585 FILLER_110_1028
*1586 FILLER_110_1031
*1587 FILLER_110_105
*1588 FILLER_110_108