*SPEF "ieee 1481-1999"
*DESIGN "user_project_wrapper"
*DATE "11:11:11 Fri 11 11, 1111"
*VENDOR "OpenRCX"
*PROGRAM "Parallel Extraction"
*VERSION "1.0"
*DESIGN_FLOW "NAME_SCOPE LOCAL" "PIN_CAP NONE"
*DIVIDER /
*DELIMITER :
*BUS_DELIMITER []
*T_UNIT 1 NS
*C_UNIT 1 PF
*R_UNIT 1 OHM
*L_UNIT 1 HENRY

*NAME_MAP
*1 io_in[0]
*2 io_in[10]
*3 io_in[11]
*4 io_in[12]
*5 io_in[13]
*6 io_in[14]
*7 io_in[15]
*8 io_in[16]
*9 io_in[17]
*10 io_in[18]
*11 io_in[19]
*12 io_in[1]
*13 io_in[20]
*14 io_in[21]
*15 io_in[22]
*16 io_in[23]
*17 io_in[24]
*18 io_in[25]
*19 io_in[26]
*20 io_in[27]
*21 io_in[28]
*22 io_in[29]
*23 io_in[2]
*24 io_in[30]
*25 io_in[31]
*26 io_in[32]
*27 io_in[33]
*28 io_in[34]
*29 io_in[35]
*30 io_in[36]
*31 io_in[37]
*32 io_in[3]
*33 io_in[4]
*34 io_in[5]
*35 io_in[6]
*36 io_in[7]
*37 io_in[8]
*38 io_in[9]
*39 io_oeb[0]
*40 io_oeb[10]
*41 io_oeb[11]
*42 io_oeb[12]
*43 io_oeb[13]
*44 io_oeb[14]
*45 io_oeb[15]
*46 io_oeb[16]
*47 io_oeb[17]
*48 io_oeb[18]
*49 io_oeb[19]
*50 io_oeb[1]
*51 io_oeb[20]
*52 io_oeb[21]
*53 io_oeb[22]
*54 io_oeb[23]
*55 io_oeb[24]
*56 io_oeb[25]
*57 io_oeb[26]
*58 io_oeb[27]
*59 io_oeb[28]
*60 io_oeb[29]
*61 io_oeb[2]
*62 io_oeb[30]
*63 io_oeb[31]
*64 io_oeb[32]
*65 io_oeb[33]
*66 io_oeb[34]
*67 io_oeb[35]
*68 io_oeb[36]
*69 io_oeb[37]
*70 io_oeb[3]
*71 io_oeb[4]
*72 io_oeb[5]
*73 io_oeb[6]
*74 io_oeb[7]
*75 io_oeb[8]
*76 io_oeb[9]
*77 io_out[0]
*78 io_out[10]
*79 io_out[11]
*80 io_out[12]
*81 io_out[13]
*82 io_out[14]
*83 io_out[15]
*84 io_out[16]
*85 io_out[17]
*86 io_out[18]
*87 io_out[19]
*88 io_out[1]
*89 io_out[20]
*90 io_out[21]
*91 io_out[22]
*92 io_out[23]
*93 io_out[24]
*94 io_out[25]
*95 io_out[26]
*96 io_out[27]
*97 io_out[28]
*98 io_out[29]
*99 io_out[2]
*100 io_out[30]
*101 io_out[31]
*102 io_out[32]
*103 io_out[33]
*104 io_out[34]
*105 io_out[35]
*106 io_out[36]
*107 io_out[37]
*108 io_out[3]
*109 io_out[4]
*110 io_out[5]
*111 io_out[6]
*112 io_out[7]
*113 io_out[8]
*114 io_out[9]
*115 la_data_in[0]
*116 la_data_in[10]
*117 la_data_in[11]
*118 la_data_in[12]
*119 la_data_in[13]
*120 la_data_in[14]
*121 la_data_in[15]
*122 la_data_in[16]
*123 la_data_in[17]
*124 la_data_in[18]
*125 la_data_in[19]
*126 la_data_in[1]
*127 la_data_in[20]
*128 la_data_in[21]
*129 la_data_in[22]
*130 la_data_in[23]
*131 la_data_in[24]
*132 la_data_in[25]
*133 la_data_in[26]
*134 la_data_in[27]
*135 la_data_in[28]
*136 la_data_in[29]
*137 la_data_in[2]
*138 la_data_in[30]
*139 la_data_in[31]
*140 la_data_in[32]
*141 la_data_in[33]
*142 la_data_in[34]
*143 la_data_in[35]
*144 la_data_in[36]
*145 la_data_in[37]
*146 la_data_in[38]
*147 la_data_in[39]
*148 la_data_in[3]
*149 la_data_in[40]
*150 la_data_in[41]
*151 la_data_in[42]
*152 la_data_in[43]
*153 la_data_in[44]
*154 la_data_in[45]
*155 la_data_in[46]
*156 la_data_in[47]
*157 la_data_in[48]
*158 la_data_in[49]
*159 la_data_in[4]
*160 la_data_in[50]
*161 la_data_in[51]
*162 la_data_in[52]
*163 la_data_in[53]
*164 la_data_in[54]
*165 la_data_in[55]
*166 la_data_in[56]
*167 la_data_in[57]
*168 la_data_in[58]
*169 la_data_in[59]
*170 la_data_in[5]
*171 la_data_in[60]
*172 la_data_in[61]
*173 la_data_in[62]
*174 la_data_in[63]
*175 la_data_in[6]
*176 la_data_in[7]
*177 la_data_in[8]
*178 la_data_in[9]
*179 la_data_out[0]
*180 la_data_out[10]
*181 la_data_out[11]
*182 la_data_out[12]
*183 la_data_out[13]
*184 la_data_out[14]
*185 la_data_out[15]
*186 la_data_out[16]
*187 la_data_out[17]
*188 la_data_out[18]
*189 la_data_out[19]
*190 la_data_out[1]
*191 la_data_out[20]
*192 la_data_out[21]
*193 la_data_out[22]
*194 la_data_out[23]
*195 la_data_out[24]
*196 la_data_out[25]
*197 la_data_out[26]
*198 la_data_out[27]
*199 la_data_out[28]
*200 la_data_out[29]
*201 la_data_out[2]
*202 la_data_out[30]
*203 la_data_out[31]
*204 la_data_out[32]
*205 la_data_out[33]
*206 la_data_out[34]
*207 la_data_out[35]
*208 la_data_out[36]
*209 la_data_out[37]
*210 la_data_out[38]
*211 la_data_out[39]
*212 la_data_out[3]
*213 la_data_out[40]
*214 la_data_out[41]
*215 la_data_out[42]
*216 la_data_out[43]
*217 la_data_out[44]
*218 la_data_out[45]
*219 la_data_out[46]
*220 la_data_out[47]
*221 la_data_out[48]
*222 la_data_out[49]
*223 la_data_out[4]
*224 la_data_out[50]
*225 la_data_out[51]
*226 la_data_out[52]
*227 la_data_out[53]
*228 la_data_out[54]
*229 la_data_out[55]
*230 la_data_out[56]
*231 la_data_out[57]
*232 la_data_out[58]
*233 la_data_out[59]
*234 la_data_out[5]
*235 la_data_out[60]
*236 la_data_out[61]
*237 la_data_out[62]
*238 la_data_out[63]
*239 la_data_out[6]
*240 la_data_out[7]
*241 la_data_out[8]
*242 la_data_out[9]
*243 la_oenb[0]
*244 la_oenb[10]
*245 la_oenb[11]
*246 la_oenb[12]
*247 la_oenb[13]
*248 la_oenb[14]
*249 la_oenb[15]
*250 la_oenb[16]
*251 la_oenb[17]
*252 la_oenb[18]
*253 la_oenb[19]
*254 la_oenb[1]
*255 la_oenb[20]
*256 la_oenb[21]
*257 la_oenb[22]
*258 la_oenb[23]
*259 la_oenb[24]
*260 la_oenb[25]
*261 la_oenb[26]
*262 la_oenb[27]
*263 la_oenb[28]
*264 la_oenb[29]
*265 la_oenb[2]
*266 la_oenb[30]
*267 la_oenb[31]
*268 la_oenb[32]
*269 la_oenb[33]
*270 la_oenb[34]
*271 la_oenb[35]
*272 la_oenb[36]
*273 la_oenb[37]
*274 la_oenb[38]
*275 la_oenb[39]
*276 la_oenb[3]
*277 la_oenb[40]
*278 la_oenb[41]
*279 la_oenb[42]
*280 la_oenb[43]
*281 la_oenb[44]
*282 la_oenb[45]
*283 la_oenb[46]
*284 la_oenb[47]
*285 la_oenb[48]
*286 la_oenb[49]
*287 la_oenb[4]
*288 la_oenb[50]
*289 la_oenb[51]
*290 la_oenb[52]
*291 la_oenb[53]
*292 la_oenb[54]
*293 la_oenb[55]
*294 la_oenb[56]
*295 la_oenb[57]
*296 la_oenb[58]
*297 la_oenb[59]
*298 la_oenb[5]
*299 la_oenb[60]
*300 la_oenb[61]
*301 la_oenb[62]
*302 la_oenb[63]
*303 la_oenb[6]
*304 la_oenb[7]
*305 la_oenb[8]
*306 la_oenb[9]
*307 user_clock2
*308 user_irq[0]
*309 user_irq[1]
*310 user_irq[2]
*313 wb_clk_i
*314 wb_rst_i
*315 wbs_ack_o
*316 wbs_adr_i[0]
*317 wbs_adr_i[10]
*318 wbs_adr_i[11]
*319 wbs_adr_i[12]
*320 wbs_adr_i[13]
*321 wbs_adr_i[14]
*322 wbs_adr_i[15]
*323 wbs_adr_i[16]
*324 wbs_adr_i[17]
*325 wbs_adr_i[18]
*326 wbs_adr_i[19]
*327 wbs_adr_i[1]
*328 wbs_adr_i[20]
*329 wbs_adr_i[21]
*330 wbs_adr_i[22]
*331 wbs_adr_i[23]
*332 wbs_adr_i[24]
*333 wbs_adr_i[25]
*334 wbs_adr_i[26]
*335 wbs_adr_i[27]
*336 wbs_adr_i[28]
*337 wbs_adr_i[29]
*338 wbs_adr_i[2]
*339 wbs_adr_i[30]
*340 wbs_adr_i[31]
*341 wbs_adr_i[3]
*342 wbs_adr_i[4]
*343 wbs_adr_i[5]
*344 wbs_adr_i[6]
*345 wbs_adr_i[7]
*346 wbs_adr_i[8]
*347 wbs_adr_i[9]
*348 wbs_cyc_i
*349 wbs_dat_i[0]
*350 wbs_dat_i[10]
*351 wbs_dat_i[11]
*352 wbs_dat_i[12]
*353 wbs_dat_i[13]
*354 wbs_dat_i[14]
*355 wbs_dat_i[15]
*356 wbs_dat_i[16]
*357 wbs_dat_i[17]
*358 wbs_dat_i[18]
*359 wbs_dat_i[19]
*360 wbs_dat_i[1]
*361 wbs_dat_i[20]
*362 wbs_dat_i[21]
*363 wbs_dat_i[22]
*364 wbs_dat_i[23]
*365 wbs_dat_i[24]
*366 wbs_dat_i[25]
*367 wbs_dat_i[26]
*368 wbs_dat_i[27]
*369 wbs_dat_i[28]
*370 wbs_dat_i[29]
*371 wbs_dat_i[2]
*372 wbs_dat_i[30]
*373 wbs_dat_i[31]
*374 wbs_dat_i[3]
*375 wbs_dat_i[4]
*376 wbs_dat_i[5]
*377 wbs_dat_i[6]
*378 wbs_dat_i[7]
*379 wbs_dat_i[8]
*380 wbs_dat_i[9]
*381 wbs_dat_o[0]
*382 wbs_dat_o[10]
*383 wbs_dat_o[11]
*384 wbs_dat_o[12]
*385 wbs_dat_o[13]
*386 wbs_dat_o[14]
*387 wbs_dat_o[15]
*388 wbs_dat_o[16]
*389 wbs_dat_o[17]
*390 wbs_dat_o[18]
*391 wbs_dat_o[19]
*392 wbs_dat_o[1]
*393 wbs_dat_o[20]
*394 wbs_dat_o[21]
*395 wbs_dat_o[22]
*396 wbs_dat_o[23]
*397 wbs_dat_o[24]
*398 wbs_dat_o[25]
*399 wbs_dat_o[26]
*400 wbs_dat_o[27]
*401 wbs_dat_o[28]
*402 wbs_dat_o[29]
*403 wbs_dat_o[2]
*404 wbs_dat_o[30]
*405 wbs_dat_o[31]
*406 wbs_dat_o[3]
*407 wbs_dat_o[4]
*408 wbs_dat_o[5]
*409 wbs_dat_o[6]
*410 wbs_dat_o[7]
*411 wbs_dat_o[8]
*412 wbs_dat_o[9]
*413 wbs_sel_i[0]
*414 wbs_sel_i[1]
*415 wbs_sel_i[2]
*416 wbs_sel_i[3]
*417 wbs_stb_i
*418 wbs_we_i
*419 i_rift2Wrap

*PORTS
io_in[0] I
io_in[10] I
io_in[11] I
io_in[12] I
io_in[13] I
io_in[14] I
io_in[15] I
io_in[16] I
io_in[17] I
io_in[18] I
io_in[19] I
io_in[1] I
io_in[20] I
io_in[21] I
io_in[22] I
io_in[23] I
io_in[24] I
io_in[25] I
io_in[26] I
io_in[27] I
io_in[28] I
io_in[29] I
io_in[2] I
io_in[30] I
io_in[31] I
io_in[32] I
io_in[33] I
io_in[34] I
io_in[35] I
io_in[36] I
io_in[37] I
io_in[3] I
io_in[4] I
io_in[5] I
io_in[6] I
io_in[7] I
io_in[8] I
io_in[9] I
io_oeb[0] O
io_oeb[10] O
io_oeb[11] O
io_oeb[12] O
io_oeb[13] O
io_oeb[14] O
io_oeb[15] O
io_oeb[16] O
io_oeb[17] O
io_oeb[18] O
io_oeb[19] O
io_oeb[1] O
io_oeb[20] O
io_oeb[21] O
io_oeb[22] O
io_oeb[23] O
io_oeb[24] O
io_oeb[25] O
io_oeb[26] O
io_oeb[27] O
io_oeb[28] O
io_oeb[29] O
io_oeb[2] O
io_oeb[30] O
io_oeb[31] O
io_oeb[32] O
io_oeb[33] O
io_oeb[34] O
io_oeb[35] O
io_oeb[36] O
io_oeb[37] O
io_oeb[3] O
io_oeb[4] O
io_oeb[5] O
io_oeb[6] O
io_oeb[7] O
io_oeb[8] O
io_oeb[9] O
io_out[0] O
io_out[10] O
io_out[11] O
io_out[12] O
io_out[13] O
io_out[14] O
io_out[15] O
io_out[16] O
io_out[17] O
io_out[18] O
io_out[19] O
io_out[1] O
io_out[20] O
io_out[21] O
io_out[22] O
io_out[23] O
io_out[24] O
io_out[25] O
io_out[26] O
io_out[27] O
io_out[28] O
io_out[29] O
io_out[2] O
io_out[30] O
io_out[31] O
io_out[32] O
io_out[33] O
io_out[34] O
io_out[35] O
io_out[36] O
io_out[37] O
io_out[3] O
io_out[4] O
io_out[5] O
io_out[6] O
io_out[7] O
io_out[8] O
io_out[9] O
la_data_in[0] I
la_data_in[10] I
la_data_in[11] I
la_data_in[12] I
la_data_in[13] I
la_data_in[14] I
la_data_in[15] I
la_data_in[16] I
la_data_in[17] I
la_data_in[18] I
la_data_in[19] I
la_data_in[1] I
la_data_in[20] I
la_data_in[21] I
la_data_in[22] I
la_data_in[23] I
la_data_in[24] I
la_data_in[25] I
la_data_in[26] I
la_data_in[27] I
la_data_in[28] I
la_data_in[29] I
la_data_in[2] I
la_data_in[30] I
la_data_in[31] I
la_data_in[32] I
la_data_in[33] I
la_data_in[34] I
la_data_in[35] I
la_data_in[36] I
la_data_in[37] I
la_data_in[38] I
la_data_in[39] I
la_data_in[3] I
la_data_in[40] I
la_data_in[41] I
la_data_in[42] I
la_data_in[43] I
la_data_in[44] I
la_data_in[45] I
la_data_in[46] I
la_data_in[47] I
la_data_in[48] I
la_data_in[49] I
la_data_in[4] I
la_data_in[50] I
la_data_in[51] I
la_data_in[52] I
la_data_in[53] I
la_data_in[54] I
la_data_in[55] I
la_data_in[56] I
la_data_in[57] I
la_data_in[58] I
la_data_in[59] I
la_data_in[5] I
la_data_in[60] I
la_data_in[61] I
la_data_in[62] I
la_data_in[63] I
la_data_in[6] I
la_data_in[7] I
la_data_in[8] I
la_data_in[9] I
la_data_out[0] O
la_data_out[10] O
la_data_out[11] O
la_data_out[12] O
la_data_out[13] O
la_data_out[14] O
la_data_out[15] O
la_data_out[16] O
la_data_out[17] O
la_data_out[18] O
la_data_out[19] O
la_data_out[1] O
la_data_out[20] O
la_data_out[21] O
la_data_out[22] O
la_data_out[23] O
la_data_out[24] O
la_data_out[25] O
la_data_out[26] O
la_data_out[27] O
la_data_out[28] O
la_data_out[29] O
la_data_out[2] O
la_data_out[30] O
la_data_out[31] O
la_data_out[32] O
la_data_out[33] O
la_data_out[34] O
la_data_out[35] O
la_data_out[36] O
la_data_out[37] O
la_data_out[38] O
la_data_out[39] O
la_data_out[3] O
la_data_out[40] O
la_data_out[41] O
la_data_out[42] O
la_data_out[43] O
la_data_out[44] O
la_data_out[45] O
la_data_out[46] O
la_data_out[47] O
la_data_out[48] O
la_data_out[49] O
la_data_out[4] O
la_data_out[50] O
la_data_out[51] O
la_data_out[52] O
la_data_out[53] O
la_data_out[54] O
la_data_out[55] O
la_data_out[56] O
la_data_out[57] O
la_data_out[58] O
la_data_out[59] O
la_data_out[5] O
la_data_out[60] O
la_data_out[61] O
la_data_out[62] O
la_data_out[63] O
la_data_out[6] O
la_data_out[7] O
la_data_out[8] O
la_data_out[9] O
la_oenb[0] I
la_oenb[10] I
la_oenb[11] I
la_oenb[12] I
la_oenb[13] I
la_oenb[14] I
la_oenb[15] I
la_oenb[16] I
la_oenb[17] I
la_oenb[18] I
la_oenb[19] I
la_oenb[1] I
la_oenb[20] I
la_oenb[21] I
la_oenb[22] I
la_oenb[23] I
la_oenb[24] I
la_oenb[25] I
la_oenb[26] I
la_oenb[27] I
la_oenb[28] I
la_oenb[29] I
la_oenb[2] I
la_oenb[30] I
la_oenb[31] I
la_oenb[32] I
la_oenb[33] I
la_oenb[34] I
la_oenb[35] I
la_oenb[36] I
la_oenb[37] I
la_oenb[38] I
la_oenb[39] I
la_oenb[3] I
la_oenb[40] I
la_oenb[41] I
la_oenb[42] I
la_oenb[43] I
la_oenb[44] I
la_oenb[45] I
la_oenb[46] I
la_oenb[47] I
la_oenb[48] I
la_oenb[49] I
la_oenb[4] I
la_oenb[50] I
la_oenb[51] I
la_oenb[52] I
la_oenb[53] I
la_oenb[54] I
la_oenb[55] I
la_oenb[56] I
la_oenb[57] I
la_oenb[58] I
la_oenb[59] I
la_oenb[5] I
la_oenb[60] I
la_oenb[61] I
la_oenb[62] I
la_oenb[63] I
la_oenb[6] I
la_oenb[7] I
la_oenb[8] I
la_oenb[9] I
user_clock2 I
user_irq[0] O
user_irq[1] O
user_irq[2] O
wb_clk_i I
wb_rst_i I
wbs_ack_o O
wbs_adr_i[0] I
wbs_adr_i[10] I
wbs_adr_i[11] I
wbs_adr_i[12] I
wbs_adr_i[13] I
wbs_adr_i[14] I
wbs_adr_i[15] I
wbs_adr_i[16] I
wbs_adr_i[17] I
wbs_adr_i[18] I
wbs_adr_i[19] I
wbs_adr_i[1] I
wbs_adr_i[20] I
wbs_adr_i[21] I
wbs_adr_i[22] I
wbs_adr_i[23] I
wbs_adr_i[24] I
wbs_adr_i[25] I
wbs_adr_i[26] I
wbs_adr_i[27] I
wbs_adr_i[28] I
wbs_adr_i[29] I
wbs_adr_i[2] I
wbs_adr_i[30] I
wbs_adr_i[31] I
wbs_adr_i[3] I
wbs_adr_i[4] I
wbs_adr_i[5] I
wbs_adr_i[6] I
wbs_adr_i[7] I
wbs_adr_i[8] I
wbs_adr_i[9] I
wbs_cyc_i I
wbs_dat_i[0] I
wbs_dat_i[10] I
wbs_dat_i[11] I
wbs_dat_i[12] I
wbs_dat_i[13] I
wbs_dat_i[14] I
wbs_dat_i[15] I
wbs_dat_i[16] I
wbs_dat_i[17] I
wbs_dat_i[18] I
wbs_dat_i[19] I
wbs_dat_i[1] I
wbs_dat_i[20] I
wbs_dat_i[21] I
wbs_dat_i[22] I
wbs_dat_i[23] I
wbs_dat_i[24] I
wbs_dat_i[25] I
wbs_dat_i[26] I
wbs_dat_i[27] I
wbs_dat_i[28] I
wbs_dat_i[29] I
wbs_dat_i[2] I
wbs_dat_i[30] I
wbs_dat_i[31] I
wbs_dat_i[3] I
wbs_dat_i[4] I
wbs_dat_i[5] I
wbs_dat_i[6] I
wbs_dat_i[7] I
wbs_dat_i[8] I
wbs_dat_i[9] I
wbs_dat_o[0] O
wbs_dat_o[10] O
wbs_dat_o[11] O
wbs_dat_o[12] O
wbs_dat_o[13] O
wbs_dat_o[14] O
wbs_dat_o[15] O
wbs_dat_o[16] O
wbs_dat_o[17] O
wbs_dat_o[18] O
wbs_dat_o[19] O
wbs_dat_o[1] O
wbs_dat_o[20] O
wbs_dat_o[21] O
wbs_dat_o[22] O
wbs_dat_o[23] O
wbs_dat_o[24] O
wbs_dat_o[25] O
wbs_dat_o[26] O
wbs_dat_o[27] O
wbs_dat_o[28] O
wbs_dat_o[29] O
wbs_dat_o[2] O
wbs_dat_o[30] O
wbs_dat_o[31] O
wbs_dat_o[3] O
wbs_dat_o[4] O
wbs_dat_o[5] O
wbs_dat_o[6] O
wbs_dat_o[7] O
wbs_dat_o[8] O
wbs_dat_o[9] O
wbs_sel_i[0] I
wbs_sel_i[1] I
wbs_sel_i[2] I
wbs_sel_i[3] I
wbs_stb_i I
wbs_we_i I

*D_NET *1 0.467118
*CONN
*P io_in[0] I
*I *419:io_in[0] I *D rift2Wrap
*CAP
1 io_in[0] 0.000255388
2 *419:io_in[0] 4.85048e-05
3 *1:11 0.0372046
4 *1:10 0.0371561
5 *1:8 0.00743625
6 *1:7 0.00769164
7 *1:8 *34:8 0.00107836
8 *1:8 *35:8 0.0605782
9 *1:8 *50:14 0.169073
10 *1:8 *238:19 0.146596
*RES
1 io_in[0] *1:7 6.525 
2 *1:7 *1:8 536.49 
3 *1:8 *1:10 4.5 
4 *1:10 *1:11 288.63 
5 *1:11 *419:io_in[0] 0.405 
*END

*D_NET *2 0.0875575
*CONN
*P io_in[10] I
*I *419:io_in[10] I *D rift2Wrap
*CAP
1 io_in[10] 0.00468295
2 *419:io_in[10] 0.00295988
3 *2:9 0.03471
4 *2:7 0.0364331
5 *419:io_in[10] *76:10 0.00761137
6 *419:io_in[10] *78:10 0.00116028
7 *2:9 *419:io_in[8] 0
*RES
1 io_in[10] *2:7 37.305 
2 *2:7 *2:9 249.3 
3 *2:9 *419:io_in[10] 38.655 
*END

*D_NET *3 0.0890724
*CONN
*P io_in[11] I
*I *419:io_in[11] I *D rift2Wrap
*CAP
1 io_in[11] 0.00274736
2 *419:io_in[11] 0.00135819
3 *3:11 0.0363015
4 *3:10 0.0376907
5 *3:10 io_oeb[10] 0.000444785
6 *3:10 *4:8 7.59439e-05
7 *3:10 *5:8 0.000548173
8 *3:10 *41:14 0
9 *3:10 *42:10 0.000217912
10 *3:10 *79:10 0.00930542
11 *3:10 *80:14 0.00033178
12 *3:10 *81:7 5.06472e-05
*RES
1 io_in[11] *3:10 46.575 
2 *3:10 *3:11 274.14 
3 *3:11 *419:io_in[11] 10.395 
*END

*D_NET *4 0.130677
*CONN
*P io_in[12] I
*I *419:io_in[12] I *D rift2Wrap
*CAP
1 io_in[12] 0.000897718
2 *419:io_in[12] 0.000113178
3 *4:11 0.0363059
4 *4:10 0.0361927
5 *4:8 0.00158469
6 *4:7 0.0024824
7 *4:8 *41:14 0.0228708
8 *4:8 *80:14 0.0301532
9 *3:10 *4:8 7.59439e-05
*RES
1 io_in[12] *4:7 11.745 
2 *4:7 *4:8 79.47 
3 *4:8 *4:10 4.5 
4 *4:10 *4:11 283.41 
5 *4:11 *419:io_in[12] 0.945 
*END

*D_NET *5 0.175919
*CONN
*P io_in[13] I
*I *419:io_in[13] I *D rift2Wrap
*CAP
1 io_in[13] 0.000962391
2 *419:io_in[13] 0.00142623
3 *5:11 0.0364548
4 *5:10 0.0350286
5 *5:8 0.00158223
6 *5:7 0.00254462
7 *5:8 *42:10 0.0436864
8 *5:8 *79:10 3.557e-05
9 *5:8 *81:10 0.0499479
10 *5:8 *82:12 0.00370163
11 *3:10 *5:8 0.000548173
*RES
1 io_in[13] *5:7 12.285 
2 *5:7 *5:8 132.39 
3 *5:8 *5:10 4.5 
4 *5:10 *5:11 274.68 
5 *5:11 *419:io_in[13] 10.935 
*END

*D_NET *6 0.183596
*CONN
*P io_in[14] I
*I *419:io_in[14] I *D rift2Wrap
*CAP
1 io_in[14] 0.00130927
2 *419:io_in[14] 0.00129352
3 *6:11 0.0362349
4 *6:10 0.0349414
5 *6:8 0.0124463
6 *6:7 0.0137556
7 *6:8 *43:8 0.0634446
8 *6:8 *44:14 0.0152154
9 *6:8 *79:10 0.00495514
*RES
1 io_in[14] *6:7 12.825 
2 *6:7 *6:8 182.61 
3 *6:8 *6:10 4.5 
4 *6:10 *6:11 274.14 
5 *6:11 *419:io_in[14] 9.855 
*END

*D_NET *7 0.136066
*CONN
*P io_in[15] I
*I *419:io_in[15] I *D rift2Wrap
*CAP
1 io_in[15] 0.00275404
2 *419:io_in[15] 0.00110412
3 *7:14 0.0386169
4 *7:13 0.0375128
5 *7:11 0.0266621
6 *7:10 0.0294161
*RES
1 io_in[15] *7:10 31.095 
2 *7:10 *7:11 204.75 
3 *7:11 *7:13 4.5 
4 *7:13 *7:14 292.95 
5 *7:14 *419:io_in[15] 12.465 
*END

*D_NET *8 0.164901
*CONN
*P io_in[16] I
*I *419:io_in[16] I *D rift2Wrap
*CAP
1 io_in[16] 0.000523307
2 *419:io_in[16] 0.002208
3 *8:11 0.0285088
4 *8:10 0.0263008
5 *8:8 0.0142635
6 *8:7 0.0147868
7 *8:8 *45:14 0.0783098
*RES
1 io_in[16] *8:7 8.505 
2 *8:7 *8:8 206.91 
3 *8:8 *8:10 4.5 
4 *8:10 *8:11 202.86 
5 *8:11 *419:io_in[16] 16.875 
*END

*D_NET *9 0.0917878
*CONN
*P io_in[17] I
*I *419:io_in[17] I *D rift2Wrap
*CAP
1 io_in[17] 0.0011068
2 *419:io_in[17] 0.00435298
3 *9:11 0.0302736
4 *9:10 0.0259207
5 *9:8 0.0138048
6 *9:7 0.0149116
7 *9:8 *10:10 0.00141722
*RES
1 io_in[17] *9:7 12.825 
2 *9:7 *9:8 110.07 
3 *9:8 *9:10 4.5 
4 *9:10 *9:11 199.89 
5 *9:11 *419:io_in[17] 42.795 
*END

*D_NET *10 0.0728242
*CONN
*P io_in[18] I
*I *419:io_in[18] I *D rift2Wrap
*CAP
1 io_in[18] 0.00105188
2 *419:io_in[18] 0.00317383
3 *10:11 0.029791
4 *10:10 0.0314778
5 *10:7 0.00591254
6 *10:11 *86:11 0
7 *9:8 *10:10 0.00141722
*RES
1 io_in[18] *10:7 12.645 
2 *10:7 *10:10 43.29 
3 *10:10 *10:11 205.47 
4 *10:11 *419:io_in[18] 34.155 
*END

*D_NET *11 0.0655426
*CONN
*P io_in[19] I
*I *419:io_in[19] I *D rift2Wrap
*CAP
1 io_in[19] 0.000178873
2 *419:io_in[19] 0.00278722
3 *11:13 0.0307192
4 *11:11 0.0281108
5 *419:io_in[19] *87:10 0.00374657
6 *11:13 *49:7 0
*RES
1 io_in[19] *11:11 2.115 
2 *11:11 *11:13 216.09 
3 *11:13 *419:io_in[19] 34.335 
*END

*D_NET *12 0.39816
*CONN
*P io_in[1] I
*I *419:io_in[1] I *D rift2Wrap
*CAP
1 io_in[1] 0.000539621
2 *419:io_in[1] 0.00148098
3 *12:11 0.0370147
4 *12:10 0.0355337
5 *12:8 0.00305743
6 *12:7 0.00359705
7 *12:8 *23:8 0.0514737
8 *12:8 *37:8 0.000464879
9 *12:8 *39:10 0.189023
10 *12:8 *307:11 0.0759753
*RES
1 io_in[1] *12:7 8.325 
2 *12:7 *12:8 483.57 
3 *12:8 *12:10 4.5 
4 *12:10 *12:11 278.64 
5 *12:11 *419:io_in[1] 10.395 
*END

*D_NET *13 0.081776
*CONN
*P io_in[20] I
*I *419:io_in[20] I *D rift2Wrap
*CAP
1 io_in[20] 0.0277134
2 *419:io_in[20] 0.00107217
3 *13:8 0.0131746
4 *13:7 0.0121024
5 *13:5 0.0277134
6 *13:8 *419:io_in[21] 0
7 *13:8 *51:10 0
8 *13:8 *53:10 0
*RES
1 io_in[20] *13:5 213.525 
2 *13:5 *13:7 4.5 
3 *13:7 *13:8 93.33 
4 *13:8 *419:io_in[20] 12.465 
*END

*D_NET *14 0.100664
*CONN
*P io_in[21] I
*I *419:io_in[21] I *D rift2Wrap
*CAP
1 io_in[21] 0.00115473
2 *419:io_in[21] 0.00143709
3 *14:11 0.028263
4 *14:10 0.0268259
5 *14:8 0.0209145
6 *14:7 0.0220692
7 *14:8 io_oeb[19] 0
8 *13:8 *419:io_in[21] 0
*RES
1 io_in[21] *14:7 12.825 
2 *14:7 *14:8 164.07 
3 *14:8 *14:10 4.5 
4 *14:10 *14:11 206.73 
5 *14:11 *419:io_in[21] 19.035 
*END

*D_NET *15 0.235935
*CONN
*P io_in[22] I
*I *419:io_in[22] I *D rift2Wrap
*CAP
1 io_in[22] 0.000477344
2 *419:io_in[22] 0.00227693
3 *15:11 0.0286267
4 *15:10 0.0263498
5 *15:8 0.00431905
6 *15:7 0.00479639
7 *15:8 *52:14 0.0815173
8 *15:8 *53:14 0.0875713
*RES
1 io_in[22] *15:7 8.145 
2 *15:7 *15:8 239.49 
3 *15:8 *15:10 4.5 
4 *15:10 *15:11 203.22 
5 *15:11 *419:io_in[22] 17.415 
*END

*D_NET *16 0.296992
*CONN
*P io_in[23] I
*I *419:io_in[23] I *D rift2Wrap
*CAP
1 io_in[23] 0.000523307
2 *419:io_in[23] 5.17084e-05
3 *16:11 0.0282878
4 *16:10 0.0282361
5 *16:8 0.00475775
6 *16:7 0.00528106
7 *16:8 *53:14 0.11219
8 *16:8 *54:10 0.117664
*RES
1 io_in[23] *16:7 8.505 
2 *16:7 *16:8 316.17 
3 *16:8 *16:10 4.5 
4 *16:10 *16:11 217.53 
5 *16:11 *419:io_in[23] 0.405 
*END

*D_NET *17 0.182828
*CONN
*P io_in[24] I
*I *419:io_in[24] I *D rift2Wrap
*CAP
1 io_in[24] 0.000852735
2 *419:io_in[24] 0.0473378
3 *17:10 0.0473378
4 *17:8 0.0278726
5 *17:7 0.0287253
6 *17:8 *18:8 0.00467604
7 *17:8 *20:8 0.000531826
8 *17:8 *55:10 0.00571021
9 *17:8 *93:10 0.0162939
10 *17:8 *94:10 0.00349008
*RES
1 io_in[24] *17:7 10.665 
2 *17:7 *17:8 211.95 
3 *17:8 *17:10 4.5 
4 *17:10 *419:io_in[24] 371.025 
*END

*D_NET *18 0.218377
*CONN
*P io_in[25] I
*I *419:io_in[25] I *D rift2Wrap
*CAP
1 io_in[25] 0.000939384
2 *419:io_in[25] 0.0472536
3 *18:10 0.0472536
4 *18:8 0.00164574
5 *18:7 0.00258512
6 *18:8 *20:8 0.000322289
7 *18:8 *55:10 0.0607762
8 *18:8 *94:10 0.0529256
9 *17:8 *18:8 0.00467604
*RES
1 io_in[25] *18:7 11.025 
2 *18:7 *18:8 157.41 
3 *18:8 *18:10 4.5 
4 *18:10 *419:io_in[25] 370.665 
*END

*D_NET *19 0.170698
*CONN
*P io_in[26] I
*I *419:io_in[26] I *D rift2Wrap
*CAP
1 io_in[26] 0.00105557
2 *419:io_in[26] 0.0471374
3 *19:10 0.0471374
4 *19:8 0.00167399
5 *19:7 0.00272957
6 *19:8 io_out[27] 0.000179373
7 *19:8 *56:10 0.0393176
8 *19:8 *95:10 0.0314669
*RES
1 io_in[26] *19:7 11.565 
2 *19:7 *19:8 102.87 
3 *19:8 *19:10 4.5 
4 *19:10 *419:io_in[26] 370.125 
*END

*D_NET *20 0.12032
*CONN
*P io_in[27] I
*I *419:io_in[27] I *D rift2Wrap
*CAP
1 io_in[27] 0.000989112
2 *419:io_in[27] 0.0472667
3 *20:10 0.0472667
4 *20:8 0.00331209
5 *20:7 0.0043012
6 *20:8 io_out[27] 0.0100613
7 *20:8 *55:10 0.000967336
8 *20:8 *93:10 0.00518986
9 *20:8 *94:10 0.000111202
10 *17:8 *20:8 0.000531826
11 *18:8 *20:8 0.000322289
*RES
1 io_in[27] *20:7 10.485 
2 *20:7 *20:8 48.33 
3 *20:8 *20:10 4.5 
4 *20:10 *419:io_in[27] 371.205 
*END

*D_NET *21 0.0988203
*CONN
*P io_in[28] I
*I *419:io_in[28] I *D rift2Wrap
*CAP
1 io_in[28] 0.000249598
2 *419:io_in[28] 0.00171331
3 *21:13 0.0491606
4 *21:11 0.0476968
5 *419:io_in[28] *97:10 0
*RES
1 io_in[28] *21:11 2.475 
2 *21:11 *21:13 372.15 
3 *21:13 *419:io_in[28] 22.275 
*END

*D_NET *22 0.112736
*CONN
*P io_in[29] I
*I *419:io_in[29] I *D rift2Wrap
*CAP
1 io_in[29] 0.0027504
2 *419:io_in[29] 0.0455266
3 *22:18 0.0455266
4 *22:16 0.00809082
5 *22:15 0.0108412
*RES
1 io_in[29] *22:15 26.145 
2 *22:15 *22:16 62.19 
3 *22:16 *22:18 4.5 
4 *22:18 *419:io_in[29] 357.525 
*END

*D_NET *23 0.347549
*CONN
*P io_in[2] I
*I *419:io_in[2] I *D rift2Wrap
*CAP
1 io_in[2] 0.000496506
2 *419:io_in[2] 0.000113178
3 *23:11 0.0369222
4 *23:10 0.036809
5 *23:8 0.00402744
6 *23:7 0.00452395
7 *23:8 *37:8 0.000417622
8 *23:8 *61:14 0.153607
9 *23:8 *72:10 0.00325733
10 *23:8 *307:11 0.0509166
11 *23:8 *310:19 0.00498466
12 *23:11 *74:15 0
13 *12:8 *23:8 0.0514737
*RES
1 io_in[2] *23:7 7.965 
2 *23:7 *23:8 433.35 
3 *23:8 *23:10 4.5 
4 *23:10 *23:11 287.19 
5 *23:11 *419:io_in[2] 0.945 
*END

*D_NET *24 0.126844
*CONN
*P io_in[30] I
*I *419:io_in[30] I *D rift2Wrap
*CAP
1 io_in[30] 0.00306031
2 *419:io_in[30] 0.0451945
3 *24:18 0.0451945
4 *24:16 0.0150547
5 *24:15 0.018115
6 *24:15 *313:16 0
7 *24:15 *314:14 0
8 *24:16 *314:11 0.000224722
*RES
1 io_in[30] *24:15 28.665 
2 *24:15 *24:16 116.19 
3 *24:16 *24:18 4.5 
4 *24:18 *419:io_in[30] 354.465 
*END

*D_NET *25 0.141208
*CONN
*P io_in[31] I
*I *419:io_in[31] I *D rift2Wrap
*CAP
1 io_in[31] 0.00177706
2 *419:io_in[31] 0.0404902
3 *25:14 0.0404902
4 *25:12 0.0222678
5 *25:11 0.0222678
6 *25:9 0.00606903
7 *25:7 0.00784609
*RES
1 io_in[31] *25:7 13.185 
2 *25:7 *25:9 47.34 
3 *25:9 *25:11 4.5 
4 *25:11 *25:12 170.19 
5 *25:12 *25:14 4.5 
6 *25:14 *419:io_in[31] 317.025 
*END

*D_NET *26 0.162797
*CONN
*P io_in[32] I
*I *419:io_in[32] I *D rift2Wrap
*CAP
1 io_in[32] 0.000323383
2 *419:io_in[32] 0.000815573
3 *26:16 0.0316905
4 *26:15 0.0308749
5 *26:13 0.0488306
6 *26:11 0.049154
7 *419:io_in[32] *59:11 0.00110758
*RES
1 io_in[32] *26:11 3.015 
2 *26:11 *26:13 370.71 
3 *26:13 *26:15 4.5 
4 *26:15 *26:16 226.89 
5 *26:16 *419:io_in[32] 11.025 
*END

*D_NET *27 0.170646
*CONN
*P io_in[33] I
*I *419:io_in[33] I *D rift2Wrap
*CAP
1 io_in[33] 0.000242542
2 *419:io_in[33] 0.0408993
3 *27:18 0.0408993
4 *27:16 0.0366684
5 *27:15 0.0366684
6 *27:13 0.00751293
7 *27:11 0.00775547
*RES
1 io_in[33] *27:11 2.475 
2 *27:11 *27:13 57.51 
3 *27:13 *27:15 4.5 
4 *27:15 *27:16 280.89 
5 *27:16 *27:18 4.5 
6 *27:18 *419:io_in[33] 319.725 
*END

*D_NET *28 0.18513
*CONN
*P io_in[34] I
*I *419:io_in[34] I *D rift2Wrap
*CAP
1 io_in[34] 0.000177869
2 *419:io_in[34] 0.0342636
3 *28:18 0.0342636
4 *28:16 0.0438249
5 *28:15 0.0438249
6 *28:13 0.0142989
7 *28:11 0.0144767
8 *28:16 *345:13 0
*RES
1 io_in[34] *28:11 1.935 
2 *28:11 *28:13 108.81 
3 *28:13 *28:15 4.5 
4 *28:15 *28:16 334.89 
5 *28:16 *28:18 4.5 
6 *28:18 *419:io_in[34] 268.425 
*END

*D_NET *29 0.198542
*CONN
*P io_in[35] I
*I *419:io_in[35] I *D rift2Wrap
*CAP
1 io_in[35] 0.000113196
2 *419:io_in[35] 0.0387734
3 *29:18 0.0387734
4 *29:16 0.0506903
5 *29:15 0.0506903
6 *29:13 0.00969421
7 *29:11 0.0098074
*RES
1 io_in[35] *29:11 1.395 
2 *29:11 *29:13 73.71 
3 *29:13 *29:15 4.5 
4 *29:15 *29:16 388.89 
5 *29:16 *29:18 4.5 
6 *29:18 *419:io_in[35] 303.525 
*END

*D_NET *30 0.21212
*CONN
*P io_in[36] I
*I *419:io_in[36] I *D rift2Wrap
*CAP
1 io_in[36] 0.00359297
2 *419:io_in[36] 0.0448311
3 *30:10 0.0448311
4 *30:8 0.057636
5 *30:7 0.061229
*RES
1 io_in[36] *30:7 32.265 
2 *30:7 *30:8 442.71 
3 *30:8 *30:10 4.5 
4 *30:10 *419:io_in[36] 349.425 
*END

*D_NET *31 0.233795
*CONN
*P io_in[37] I
*I *419:io_in[37] I *D rift2Wrap
*CAP
1 io_in[37] 0.000323383
2 *419:io_in[37] 0.00155681
3 *31:16 0.0679469
4 *31:15 0.0663901
5 *31:13 0.0486273
6 *31:11 0.0489507
7 *31:13 *373:16 0
8 *31:16 *170:15 0
9 *31:16 *265:5 0
*RES
1 io_in[37] *31:11 3.015 
2 *31:11 *31:13 368.01 
3 *31:13 *31:15 4.5 
4 *31:15 *31:16 499.59 
5 *31:16 *419:io_in[37] 13.725 
*END

*D_NET *32 0.365456
*CONN
*P io_in[3] I
*I *419:io_in[3] I *D rift2Wrap
*CAP
1 io_in[3] 0.000453406
2 *419:io_in[3] 0.000926483
3 *32:11 0.0372658
4 *32:10 0.0363393
5 *32:8 0.001519
6 *32:7 0.0019724
7 *419:io_in[3] *113:8 0.000447257
8 *32:8 *61:14 0.147872
9 *32:8 *70:8 0.132244
10 *32:8 *72:10 0.000310677
11 *32:8 *238:19 0.00216552
12 *32:8 *310:19 0.00355595
13 *32:11 *61:10 0.000384223
*RES
1 io_in[3] *32:7 7.605 
2 *32:7 *32:8 378.99 
3 *32:8 *32:10 4.5 
4 *32:10 *32:11 284.13 
5 *32:11 *419:io_in[3] 16.515 
*END

*D_NET *33 0.319364
*CONN
*P io_in[4] I
*I *419:io_in[4] I *D rift2Wrap
*CAP
1 io_in[4] 0.000468444
2 *419:io_in[4] 0.00139781
3 *33:11 0.0370761
4 *33:10 0.0356783
5 *33:8 0.00163706
6 *33:7 0.0021055
7 *33:8 *34:8 0.104694
8 *33:8 *70:8 0.128691
9 *33:8 *72:10 0.000147652
10 *33:8 *238:19 0.00746864
*RES
1 io_in[4] *33:7 7.245 
2 *33:7 *33:8 330.21 
3 *33:8 *33:10 4.5 
4 *33:10 *33:11 279.72 
5 *33:11 *419:io_in[4] 9.855 
*END

*D_NET *34 0.266058
*CONN
*P io_in[5] I
*I *419:io_in[5] I *D rift2Wrap
*CAP
1 io_in[5] 0.000371561
2 *419:io_in[5] 4.85048e-05
3 *34:11 0.0369325
4 *34:10 0.036884
5 *34:8 0.00220447
6 *34:7 0.00257603
7 *34:8 *35:8 0.0113141
8 *34:8 *36:8 0.0599278
9 *34:8 *72:10 0.000390984
10 *34:8 *238:19 0.00963635
11 *1:8 *34:8 0.00107836
12 *33:8 *34:8 0.104694
*RES
1 io_in[5] *34:7 7.065 
2 *34:7 *34:8 279.99 
3 *34:8 *34:10 4.5 
4 *34:10 *34:11 288.09 
5 *34:11 *419:io_in[5] 0.405 
*END

*D_NET *35 0.223223
*CONN
*P io_in[6] I
*I *419:io_in[6] I *D rift2Wrap
*CAP
1 io_in[6] 0.000311289
2 *419:io_in[6] 0.00142025
3 *35:11 0.0371652
4 *35:10 0.035745
5 *35:8 0.00444335
6 *35:7 0.00475464
7 *35:8 *36:8 0.0641666
8 *35:8 *50:14 0.00332402
9 *1:8 *35:8 0.0605782
10 *34:8 *35:8 0.0113141
*RES
1 io_in[6] *35:7 6.705 
2 *35:7 *35:8 227.07 
3 *35:8 *35:10 4.5 
4 *35:10 *35:11 280.26 
5 *35:11 *419:io_in[6] 10.395 
*END

*D_NET *36 0.203976
*CONN
*P io_in[7] I
*I *419:io_in[7] I *D rift2Wrap
*CAP
1 io_in[7] 0.000350019
2 *419:io_in[7] 0.000113178
3 *36:11 0.0369593
4 *36:10 0.0368461
5 *36:8 0.00263151
6 *36:7 0.00298153
7 *36:8 *72:10 0
8 *36:8 *74:10 0
9 *34:8 *36:8 0.0599278
10 *35:8 *36:8 0.0641666
*RES
1 io_in[7] *36:7 6.885 
2 *36:7 *36:8 176.85 
3 *36:8 *36:10 4.5 
4 *36:10 *36:11 288.27 
5 *36:11 *419:io_in[7] 0.945 
*END

*D_NET *37 0.134202
*CONN
*P io_in[8] I
*I *419:io_in[8] I *D rift2Wrap
*CAP
1 io_in[8] 0.000720127
2 *419:io_in[8] 0.00145986
3 *37:11 0.0368853
4 *37:10 0.0354254
5 *37:8 0.00879245
6 *37:7 0.00951258
7 *37:8 *38:8 0.0235826
8 *37:8 *39:10 0.013667
9 *37:8 *72:10 0.000746488
10 *37:8 *74:10 0.00252816
11 *2:9 *419:io_in[8] 0
12 *12:8 *37:8 0.000464879
13 *23:8 *37:8 0.000417622
*RES
1 io_in[8] *37:7 8.685 
2 *37:7 *37:8 123.93 
3 *37:8 *37:10 4.5 
4 *37:10 *37:11 278.28 
5 *37:11 *419:io_in[8] 10.935 
*END

*D_NET *38 0.125195
*CONN
*P io_in[9] I
*I *419:io_in[9] I *D rift2Wrap
*CAP
1 io_in[9] 0.000713803
2 *419:io_in[9] 0.00132128
3 *38:11 0.0367629
4 *38:10 0.0354416
5 *38:8 0.00206298
6 *38:7 0.00277678
7 *38:8 *74:10 0.022533
8 *37:8 *38:8 0.0235826
*RES
1 io_in[9] *38:7 8.505 
2 *38:7 *38:8 73.71 
3 *38:8 *38:10 4.5 
4 *38:10 *38:11 278.46 
5 *38:11 *419:io_in[9] 9.855 
*END

*D_NET *39 0.466988
*CONN
*P io_oeb[0] O
*I *419:io_oeb[0] O *D rift2Wrap
*CAP
1 io_oeb[0] 0.000561164
2 *419:io_oeb[0] 8.92293e-05
3 *39:10 0.0050204
4 *39:9 0.00445924
5 *39:7 0.0453248
6 *39:5 0.0454141
7 *39:10 *174:11 0.159672
8 *39:10 *307:11 0.00375745
9 *12:8 *39:10 0.189023
10 *37:8 *39:10 0.013667
*RES
1 *419:io_oeb[0] *39:5 0.585 
2 *39:5 *39:7 286.65 
3 *39:7 *39:9 4.5 
4 *39:9 *39:10 502.11 
5 *39:10 io_oeb[0] 8.505 
*END

*D_NET *40 0.0779244
*CONN
*P io_oeb[10] O
*I *419:io_oeb[10] O *D rift2Wrap
*CAP
1 io_oeb[10] 0.00216238
2 *419:io_oeb[10] 7.17475e-05
3 *40:7 0.0381052
4 *40:5 0.0360146
5 io_oeb[10] *41:11 0.000810084
6 io_oeb[10] *79:10 0.000315609
7 *3:10 io_oeb[10] 0.000444785
*RES
1 *419:io_oeb[10] *40:5 0.585 
2 *40:5 *40:7 281.61 
3 *40:7 io_oeb[10] 28.935 
*END

*D_NET *41 0.107099
*CONN
*P io_oeb[11] O
*I *419:io_oeb[11] O *D rift2Wrap
*CAP
1 io_oeb[11] 0.00087616
2 *419:io_oeb[11] 0.00135819
3 *41:14 0.00537762
4 *41:13 0.00450146
5 *41:11 0.0349733
6 *41:9 0.0363315
7 io_oeb[10] *41:11 0.000810084