*SPEF "ieee 1481-1999"
*DESIGN "user_project_wrapper"
*DATE "11:11:11 Fri 11 11, 1111"
*VENDOR "OpenRCX"
*PROGRAM "Parallel Extraction"
*VERSION "1.0"
*DESIGN_FLOW "NAME_SCOPE LOCAL" "PIN_CAP NONE"
*DIVIDER /
*DELIMITER :
*BUS_DELIMITER []
*T_UNIT 1 NS
*C_UNIT 1 PF
*R_UNIT 1 OHM
*L_UNIT 1 HENRY

*NAME_MAP
*1 io_in[0]
*2 io_in[10]
*3 io_in[11]
*4 io_in[12]
*5 io_in[13]
*6 io_in[14]
*7 io_in[15]
*8 io_in[16]
*9 io_in[17]
*10 io_in[18]
*11 io_in[19]
*12 io_in[1]
*13 io_in[20]
*14 io_in[21]
*15 io_in[22]
*16 io_in[23]
*17 io_in[24]
*18 io_in[25]
*19 io_in[26]
*20 io_in[27]
*21 io_in[28]
*22 io_in[29]
*23 io_in[2]
*24 io_in[30]
*25 io_in[31]
*26 io_in[32]
*27 io_in[33]
*28 io_in[34]
*29 io_in[35]
*30 io_in[36]
*31 io_in[37]
*32 io_in[3]
*33 io_in[4]
*34 io_in[5]
*35 io_in[6]
*36 io_in[7]
*37 io_in[8]
*38 io_in[9]
*39 io_oeb[0]
*40 io_oeb[10]
*41 io_oeb[11]
*42 io_oeb[12]
*43 io_oeb[13]
*44 io_oeb[14]
*45 io_oeb[15]
*46 io_oeb[16]
*47 io_oeb[17]
*48 io_oeb[18]
*49 io_oeb[19]
*50 io_oeb[1]
*51 io_oeb[20]
*52 io_oeb[21]
*53 io_oeb[22]
*54 io_oeb[23]
*55 io_oeb[24]
*56 io_oeb[25]
*57 io_oeb[26]
*58 io_oeb[27]
*59 io_oeb[28]
*60 io_oeb[29]
*61 io_oeb[2]
*62 io_oeb[30]
*63 io_oeb[31]
*64 io_oeb[32]
*65 io_oeb[33]
*66 io_oeb[34]
*67 io_oeb[35]
*68 io_oeb[36]
*69 io_oeb[37]
*70 io_oeb[3]
*71 io_oeb[4]
*72 io_oeb[5]
*73 io_oeb[6]
*74 io_oeb[7]
*75 io_oeb[8]
*76 io_oeb[9]
*77 io_out[0]
*78 io_out[10]
*79 io_out[11]
*80 io_out[12]
*81 io_out[13]
*82 io_out[14]
*83 io_out[15]
*84 io_out[16]
*85 io_out[17]
*86 io_out[18]
*87 io_out[19]
*88 io_out[1]
*89 io_out[20]
*90 io_out[21]
*91 io_out[22]
*92 io_out[23]
*93 io_out[24]
*94 io_out[25]
*95 io_out[26]
*96 io_out[27]
*97 io_out[28]
*98 io_out[29]
*99 io_out[2]
*100 io_out[30]
*101 io_out[31]
*102 io_out[32]
*103 io_out[33]
*104 io_out[34]
*105 io_out[35]
*106 io_out[36]
*107 io_out[37]
*108 io_out[3]
*109 io_out[4]
*110 io_out[5]
*111 io_out[6]
*112 io_out[7]
*113 io_out[8]
*114 io_out[9]
*115 la_data_in[0]
*116 la_data_in[10]
*117 la_data_in[11]
*118 la_data_in[12]
*119 la_data_in[13]
*120 la_data_in[14]
*121 la_data_in[15]
*122 la_data_in[16]
*123 la_data_in[17]
*124 la_data_in[18]
*125 la_data_in[19]
*126 la_data_in[1]
*127 la_data_in[20]
*128 la_data_in[21]
*129 la_data_in[22]
*130 la_data_in[23]
*131 la_data_in[24]
*132 la_data_in[25]
*133 la_data_in[26]
*134 la_data_in[27]
*135 la_data_in[28]
*136 la_data_in[29]
*137 la_data_in[2]
*138 la_data_in[30]
*139 la_data_in[31]
*140 la_data_in[32]
*141 la_data_in[33]
*142 la_data_in[34]
*143 la_data_in[35]
*144 la_data_in[36]
*145 la_data_in[37]
*146 la_data_in[38]
*147 la_data_in[39]
*148 la_data_in[3]
*149 la_data_in[40]
*150 la_data_in[41]
*151 la_data_in[42]
*152 la_data_in[43]
*153 la_data_in[44]
*154 la_data_in[45]
*155 la_data_in[46]
*156 la_data_in[47]
*157 la_data_in[48]
*158 la_data_in[49]
*159 la_data_in[4]
*160 la_data_in[50]
*161 la_data_in[51]
*162 la_data_in[52]
*163 la_data_in[53]
*164 la_data_in[54]
*165 la_data_in[55]
*166 la_data_in[56]
*167 la_data_in[57]
*168 la_data_in[58]
*169 la_data_in[59]
*170 la_data_in[5]
*171 la_data_in[60]
*172 la_data_in[61]
*173 la_data_in[62]
*174 la_data_in[63]
*175 la_data_in[6]
*176 la_data_in[7]
*177 la_data_in[8]
*178 la_data_in[9]
*179 la_data_out[0]
*180 la_data_out[10]
*181 la_data_out[11]
*182 la_data_out[12]
*183 la_data_out[13]
*184 la_data_out[14]
*185 la_data_out[15]
*186 la_data_out[16]
*187 la_data_out[17]
*188 la_data_out[18]
*189 la_data_out[19]
*190 la_data_out[1]
*191 la_data_out[20]
*192 la_data_out[21]
*193 la_data_out[22]
*194 la_data_out[23]
*195 la_data_out[24]
*196 la_data_out[25]
*197 la_data_out[26]
*198 la_data_out[27]
*199 la_data_out[28]
*200 la_data_out[29]
*201 la_data_out[2]
*202 la_data_out[30]
*203 la_data_out[31]
*204 la_data_out[32]
*205 la_data_out[33]
*206 la_data_out[34]
*207 la_data_out[35]
*208 la_data_out[36]
*209 la_data_out[37]
*210 la_data_out[38]
*211 la_data_out[39]
*212 la_data_out[3]
*213 la_data_out[40]
*214 la_data_out[41]
*215 la_data_out[42]
*216 la_data_out[43]
*217 la_data_out[44]
*218 la_data_out[45]
*219 la_data_out[46]
*220 la_data_out[47]
*221 la_data_out[48]
*222 la_data_out[49]
*223 la_data_out[4]
*224 la_data_out[50]
*225 la_data_out[51]
*226 la_data_out[52]
*227 la_data_out[53]
*228 la_data_out[54]
*229 la_data_out[55]
*230 la_data_out[56]
*231 la_data_out[57]
*232 la_data_out[58]
*233 la_data_out[59]
*234 la_data_out[5]
*235 la_data_out[60]
*236 la_data_out[61]
*237 la_data_out[62]
*238 la_data_out[63]
*239 la_data_out[6]
*240 la_data_out[7]
*241 la_data_out[8]
*242 la_data_out[9]
*243 la_oenb[0]
*244 la_oenb[10]
*245 la_oenb[11]
*246 la_oenb[12]
*247 la_oenb[13]
*248 la_oenb[14]
*249 la_oenb[15]
*250 la_oenb[16]
*251 la_oenb[17]
*252 la_oenb[18]
*253 la_oenb[19]
*254 la_oenb[1]
*255 la_oenb[20]
*256 la_oenb[21]
*257 la_oenb[22]
*258 la_oenb[23]
*259 la_oenb[24]
*260 la_oenb[25]
*261 la_oenb[26]
*262 la_oenb[27]
*263 la_oenb[28]
*264 la_oenb[29]
*265 la_oenb[2]
*266 la_oenb[30]
*267 la_oenb[31]
*268 la_oenb[32]
*269 la_oenb[33]
*270 la_oenb[34]
*271 la_oenb[35]
*272 la_oenb[36]
*273 la_oenb[37]
*274 la_oenb[38]
*275 la_oenb[39]
*276 la_oenb[3]
*277 la_oenb[40]
*278 la_oenb[41]
*279 la_oenb[42]
*280 la_oenb[43]
*281 la_oenb[44]
*282 la_oenb[45]
*283 la_oenb[46]
*284 la_oenb[47]
*285 la_oenb[48]
*286 la_oenb[49]
*287 la_oenb[4]
*288 la_oenb[50]
*289 la_oenb[51]
*290 la_oenb[52]
*291 la_oenb[53]
*292 la_oenb[54]
*293 la_oenb[55]
*294 la_oenb[56]
*295 la_oenb[57]
*296 la_oenb[58]
*297 la_oenb[59]
*298 la_oenb[5]
*299 la_oenb[60]
*300 la_oenb[61]
*301 la_oenb[62]
*302 la_oenb[63]
*303 la_oenb[6]
*304 la_oenb[7]
*305 la_oenb[8]
*306 la_oenb[9]
*307 user_clock2
*308 user_irq[0]
*309 user_irq[1]
*310 user_irq[2]
*313 wb_clk_i
*314 wb_rst_i
*315 wbs_ack_o
*316 wbs_adr_i[0]
*317 wbs_adr_i[10]
*318 wbs_adr_i[11]
*319 wbs_adr_i[12]
*320 wbs_adr_i[13]
*321 wbs_adr_i[14]
*322 wbs_adr_i[15]
*323 wbs_adr_i[16]
*324 wbs_adr_i[17]
*325 wbs_adr_i[18]
*326 wbs_adr_i[19]
*327 wbs_adr_i[1]
*328 wbs_adr_i[20]
*329 wbs_adr_i[21]
*330 wbs_adr_i[22]
*331 wbs_adr_i[23]
*332 wbs_adr_i[24]
*333 wbs_adr_i[25]
*334 wbs_adr_i[26]
*335 wbs_adr_i[27]
*336 wbs_adr_i[28]
*337 wbs_adr_i[29]
*338 wbs_adr_i[2]
*339 wbs_adr_i[30]
*340 wbs_adr_i[31]
*341 wbs_adr_i[3]
*342 wbs_adr_i[4]
*343 wbs_adr_i[5]
*344 wbs_adr_i[6]
*345 wbs_adr_i[7]
*346 wbs_adr_i[8]
*347 wbs_adr_i[9]
*348 wbs_cyc_i
*349 wbs_dat_i[0]
*350 wbs_dat_i[10]
*351 wbs_dat_i[11]
*352 wbs_dat_i[12]
*353 wbs_dat_i[13]
*354 wbs_dat_i[14]
*355 wbs_dat_i[15]
*356 wbs_dat_i[16]
*357 wbs_dat_i[17]
*358 wbs_dat_i[18]
*359 wbs_dat_i[19]
*360 wbs_dat_i[1]
*361 wbs_dat_i[20]
*362 wbs_dat_i[21]
*363 wbs_dat_i[22]
*364 wbs_dat_i[23]
*365 wbs_dat_i[24]
*366 wbs_dat_i[25]
*367 wbs_dat_i[26]
*368 wbs_dat_i[27]
*369 wbs_dat_i[28]
*370 wbs_dat_i[29]
*371 wbs_dat_i[2]
*372 wbs_dat_i[30]
*373 wbs_dat_i[31]
*374 wbs_dat_i[3]
*375 wbs_dat_i[4]
*376 wbs_dat_i[5]
*377 wbs_dat_i[6]
*378 wbs_dat_i[7]
*379 wbs_dat_i[8]
*380 wbs_dat_i[9]
*381 wbs_dat_o[0]
*382 wbs_dat_o[10]
*383 wbs_dat_o[11]
*384 wbs_dat_o[12]
*385 wbs_dat_o[13]
*386 wbs_dat_o[14]
*387 wbs_dat_o[15]
*388 wbs_dat_o[16]
*389 wbs_dat_o[17]
*390 wbs_dat_o[18]
*391 wbs_dat_o[19]
*392 wbs_dat_o[1]
*393 wbs_dat_o[20]
*394 wbs_dat_o[21]
*395 wbs_dat_o[22]
*396 wbs_dat_o[23]
*397 wbs_dat_o[24]
*398 wbs_dat_o[25]
*399 wbs_dat_o[26]
*400 wbs_dat_o[27]
*401 wbs_dat_o[28]
*402 wbs_dat_o[29]
*403 wbs_dat_o[2]
*404 wbs_dat_o[30]
*405 wbs_dat_o[31]
*406 wbs_dat_o[3]
*407 wbs_dat_o[4]
*408 wbs_dat_o[5]
*409 wbs_dat_o[6]
*410 wbs_dat_o[7]
*411 wbs_dat_o[8]
*412 wbs_dat_o[9]
*413 wbs_sel_i[0]
*414 wbs_sel_i[1]
*415 wbs_sel_i[2]
*416 wbs_sel_i[3]
*417 wbs_stb_i
*418 wbs_we_i
*419 i_rift2Wrap

*PORTS
io_in[0] I
io_in[10] I
io_in[11] I
io_in[12] I
io_in[13] I
io_in[14] I
io_in[15] I
io_in[16] I
io_in[17] I
io_in[18] I
io_in[19] I
io_in[1] I
io_in[20] I
io_in[21] I
io_in[22] I
io_in[23] I
io_in[24] I
io_in[25] I
io_in[26] I
io_in[27] I
io_in[28] I
io_in[29] I
io_in[2] I
io_in[30] I
io_in[31] I
io_in[32] I
io_in[33] I
io_in[34] I
io_in[35] I
io_in[36] I
io_in[37] I
io_in[3] I
io_in[4] I
io_in[5] I
io_in[6] I
io_in[7] I
io_in[8] I
io_in[9] I
io_oeb[0] O
io_oeb[10] O
io_oeb[11] O
io_oeb[12] O
io_oeb[13] O
io_oeb[14] O
io_oeb[15] O
io_oeb[16] O
io_oeb[17] O
io_oeb[18] O
io_oeb[19] O
io_oeb[1] O
io_oeb[20] O
io_oeb[21] O
io_oeb[22] O
io_oeb[23] O
io_oeb[24] O
io_oeb[25] O
io_oeb[26] O
io_oeb[27] O
io_oeb[28] O
io_oeb[29] O
io_oeb[2] O
io_oeb[30] O
io_oeb[31] O
io_oeb[32] O
io_oeb[33] O
io_oeb[34] O
io_oeb[35] O
io_oeb[36] O
io_oeb[37] O
io_oeb[3] O
io_oeb[4] O
io_oeb[5] O
io_oeb[6] O
io_oeb[7] O
io_oeb[8] O
io_oeb[9] O
io_out[0] O
io_out[10] O
io_out[11] O
io_out[12] O
io_out[13] O
io_out[14] O
io_out[15] O
io_out[16] O
io_out[17] O
io_out[18] O
io_out[19] O
io_out[1] O
io_out[20] O
io_out[21] O
io_out[22] O
io_out[23] O
io_out[24] O
io_out[25] O
io_out[26] O
io_out[27] O
io_out[28] O
io_out[29] O
io_out[2] O
io_out[30] O
io_out[31] O
io_out[32] O
io_out[33] O
io_out[34] O
io_out[35] O
io_out[36] O
io_out[37] O
io_out[3] O
io_out[4] O
io_out[5] O
io_out[6] O
io_out[7] O
io_out[8] O
io_out[9] O
la_data_in[0] I
la_data_in[10] I
la_data_in[11] I
la_data_in[12] I
la_data_in[13] I
la_data_in[14] I
la_data_in[15] I
la_data_in[16] I
la_data_in[17] I
la_data_in[18] I
la_data_in[19] I
la_data_in[1] I
la_data_in[20] I
la_data_in[21] I
la_data_in[22] I
la_data_in[23] I
la_data_in[24] I
la_data_in[25] I
la_data_in[26] I
la_data_in[27] I
la_data_in[28] I
la_data_in[29] I
la_data_in[2] I
la_data_in[30] I
la_data_in[31] I
la_data_in[32] I
la_data_in[33] I
la_data_in[34] I
la_data_in[35] I
la_data_in[36] I
la_data_in[37] I
la_data_in[38] I
la_data_in[39] I
la_data_in[3] I
la_data_in[40] I
la_data_in[41] I
la_data_in[42] I
la_data_in[43] I
la_data_in[44] I
la_data_in[45] I
la_data_in[46] I
la_data_in[47] I
la_data_in[48] I
la_data_in[49] I
la_data_in[4] I
la_data_in[50] I
la_data_in[51] I
la_data_in[52] I
la_data_in[53] I
la_data_in[54] I
la_data_in[55] I
la_data_in[56] I
la_data_in[57] I
la_data_in[58] I
la_data_in[59] I
la_data_in[5] I
la_data_in[60] I
la_data_in[61] I
la_data_in[62] I
la_data_in[63] I
la_data_in[6] I
la_data_in[7] I
la_data_in[8] I
la_data_in[9] I
la_data_out[0] O
la_data_out[10] O
la_data_out[11] O
la_data_out[12] O
la_data_out[13] O
la_data_out[14] O
la_data_out[15] O
la_data_out[16] O
la_data_out[17] O
la_data_out[18] O
la_data_out[19] O
la_data_out[1] O
la_data_out[20] O
la_data_out[21] O
la_data_out[22] O
la_data_out[23] O
la_data_out[24] O
la_data_out[25] O
la_data_out[26] O
la_data_out[27] O
la_data_out[28] O
la_data_out[29] O
la_data_out[2] O
la_data_out[30] O
la_data_out[31] O
la_data_out[32] O
la_data_out[33] O
la_data_out[34] O
la_data_out[35] O
la_data_out[36] O
la_data_out[37] O
la_data_out[38] O
la_data_out[39] O
la_data_out[3] O
la_data_out[40] O
la_data_out[41] O
la_data_out[42] O
la_data_out[43] O
la_data_out[44] O
la_data_out[45] O
la_data_out[46] O
la_data_out[47] O
la_data_out[48] O
la_data_out[49] O
la_data_out[4] O
la_data_out[50] O
la_data_out[51] O
la_data_out[52] O
la_data_out[53] O
la_data_out[54] O
la_data_out[55] O
la_data_out[56] O
la_data_out[57] O
la_data_out[58] O
la_data_out[59] O
la_data_out[5] O
la_data_out[60] O
la_data_out[61] O
la_data_out[62] O
la_data_out[63] O
la_data_out[6] O
la_data_out[7] O
la_data_out[8] O
la_data_out[9] O
la_oenb[0] I
la_oenb[10] I
la_oenb[11] I
la_oenb[12] I
la_oenb[13] I
la_oenb[14] I
la_oenb[15] I
la_oenb[16] I
la_oenb[17] I
la_oenb[18] I
la_oenb[19] I
la_oenb[1] I
la_oenb[20] I
la_oenb[21] I
la_oenb[22] I
la_oenb[23] I
la_oenb[24] I
la_oenb[25] I
la_oenb[26] I
la_oenb[27] I
la_oenb[28] I
la_oenb[29] I
la_oenb[2] I
la_oenb[30] I
la_oenb[31] I
la_oenb[32] I
la_oenb[33] I
la_oenb[34] I
la_oenb[35] I
la_oenb[36] I
la_oenb[37] I
la_oenb[38] I
la_oenb[39] I
la_oenb[3] I
la_oenb[40] I
la_oenb[41] I
la_oenb[42] I
la_oenb[43] I
la_oenb[44] I
la_oenb[45] I
la_oenb[46] I
la_oenb[47] I
la_oenb[48] I
la_oenb[49] I
la_oenb[4] I
la_oenb[50] I
la_oenb[51] I
la_oenb[52] I
la_oenb[53] I
la_oenb[54] I
la_oenb[55] I
la_oenb[56] I
la_oenb[57] I
la_oenb[58] I
la_oenb[59] I
la_oenb[5] I
la_oenb[60] I
la_oenb[61] I
la_oenb[62] I
la_oenb[63] I
la_oenb[6] I
la_oenb[7] I
la_oenb[8] I
la_oenb[9] I
user_clock2 I
user_irq[0] O
user_irq[1] O
user_irq[2] O
wb_clk_i I
wb_rst_i I
wbs_ack_o O
wbs_adr_i[0] I
wbs_adr_i[10] I
wbs_adr_i[11] I
wbs_adr_i[12] I
wbs_adr_i[13] I
wbs_adr_i[14] I
wbs_adr_i[15] I
wbs_adr_i[16] I
wbs_adr_i[17] I
wbs_adr_i[18] I
wbs_adr_i[19] I
wbs_adr_i[1] I
wbs_adr_i[20] I
wbs_adr_i[21] I
wbs_adr_i[22] I
wbs_adr_i[23] I
wbs_adr_i[24] I
wbs_adr_i[25] I
wbs_adr_i[26] I
wbs_adr_i[27] I
wbs_adr_i[28] I
wbs_adr_i[29] I
wbs_adr_i[2] I
wbs_adr_i[30] I
wbs_adr_i[31] I
wbs_adr_i[3] I
wbs_adr_i[4] I
wbs_adr_i[5] I
wbs_adr_i[6] I
wbs_adr_i[7] I
wbs_adr_i[8] I
wbs_adr_i[9] I
wbs_cyc_i I
wbs_dat_i[0] I
wbs_dat_i[10] I
wbs_dat_i[11] I
wbs_dat_i[12] I
wbs_dat_i[13] I
wbs_dat_i[14] I
wbs_dat_i[15] I
wbs_dat_i[16] I
wbs_dat_i[17] I
wbs_dat_i[18] I
wbs_dat_i[19] I
wbs_dat_i[1] I
wbs_dat_i[20] I
wbs_dat_i[21] I
wbs_dat_i[22] I
wbs_dat_i[23] I
wbs_dat_i[24] I
wbs_dat_i[25] I
wbs_dat_i[26] I
wbs_dat_i[27] I
wbs_dat_i[28] I
wbs_dat_i[29] I
wbs_dat_i[2] I
wbs_dat_i[30] I
wbs_dat_i[31] I
wbs_dat_i[3] I
wbs_dat_i[4] I
wbs_dat_i[5] I
wbs_dat_i[6] I
wbs_dat_i[7] I
wbs_dat_i[8] I
wbs_dat_i[9] I
wbs_dat_o[0] O
wbs_dat_o[10] O
wbs_dat_o[11] O
wbs_dat_o[12] O
wbs_dat_o[13] O
wbs_dat_o[14] O
wbs_dat_o[15] O
wbs_dat_o[16] O
wbs_dat_o[17] O
wbs_dat_o[18] O
wbs_dat_o[19] O
wbs_dat_o[1] O
wbs_dat_o[20] O
wbs_dat_o[21] O
wbs_dat_o[22] O
wbs_dat_o[23] O
wbs_dat_o[24] O
wbs_dat_o[25] O
wbs_dat_o[26] O
wbs_dat_o[27] O
wbs_dat_o[28] O
wbs_dat_o[29] O
wbs_dat_o[2] O
wbs_dat_o[30] O
wbs_dat_o[31] O
wbs_dat_o[3] O
wbs_dat_o[4] O
wbs_dat_o[5] O
wbs_dat_o[6] O
wbs_dat_o[7] O
wbs_dat_o[8] O
wbs_dat_o[9] O
wbs_sel_i[0] I
wbs_sel_i[1] I
wbs_sel_i[2] I
wbs_sel_i[3] I
wbs_stb_i I
wbs_we_i I

*D_NET *1 0.442925
*CONN
*P io_in[0] I
*I *419:io_in[0] I *D rift2Wrap
*CAP
1 io_in[0] 0.000271078
2 *419:io_in[0] 3.5832e-05
3 *1:11 0.0271517
4 *1:10 0.0271159
5 *1:8 0.0327749
6 *1:7 0.033046
7 *1:8 *12:8 0.322529
*RES
1 io_in[0] *1:7 6.885 
2 *1:7 *1:8 537.21 
3 *1:8 *1:10 4.5 
4 *1:10 *1:11 294.57 
5 *1:11 *419:io_in[0] 0.405 
*END

*D_NET *2 0.0672498
*CONN
*P io_in[10] I
*I *419:io_in[10] I *D rift2Wrap
*CAP
1 io_in[10] 0.0266663
2 *419:io_in[10] 0.00165673
3 *2:5 0.028323
4 *419:io_in[10] *76:8 0.0103725
5 *419:io_in[10] *78:10 4.47532e-05
6 *419:io_in[10] *78:11 0.000186509
*RES
1 io_in[10] *2:5 292.185 
2 *2:5 *419:io_in[10] 33.075 
*END

*D_NET *3 0.0803645
*CONN
*P io_in[11] I
*I *419:io_in[11] I *D rift2Wrap
*CAP
1 io_in[11] 0.00220152
2 *419:io_in[11] 0.00104959
3 *3:11 0.0267571
4 *3:10 0.0279091
5 *3:10 io_oeb[10] 0
6 *3:10 *4:8 9.20636e-05
7 *3:10 *5:8 0.000736509
8 *3:10 *41:14 0
9 *3:10 *42:10 0.000268519
10 *3:10 *43:5 2.71992e-05
11 *3:10 *79:10 0.0198244
12 *3:10 *80:14 0.000414286
13 *3:10 *81:10 0.00108431
*RES
1 io_in[11] *3:10 49.995 
2 *3:10 *3:11 282.24 
3 *3:11 *419:io_in[11] 10.395 
*END

*D_NET *4 0.158475
*CONN
*P io_in[12] I
*I *419:io_in[12] I *D rift2Wrap
*CAP
1 io_in[12] 0.000556044
2 *419:io_in[12] 8.3608e-05
3 *4:11 0.0265722
4 *4:10 0.0264886
5 *4:8 0.00199685
6 *4:7 0.00255289
7 *4:8 *41:14 0.0435154
8 *4:8 *80:14 0.0562815
9 *4:11 io_oeb[10] 0.000335716
10 *3:10 *4:8 9.20636e-05
*RES
1 io_in[12] *4:7 9.945 
2 *4:7 *4:8 85.23 
3 *4:8 *4:10 4.5 
4 *4:10 *4:11 291.51 
5 *4:11 *419:io_in[12] 0.945 
*END

*D_NET *5 0.231721
*CONN
*P io_in[13] I
*I *419:io_in[13] I *D rift2Wrap
*CAP
1 io_in[13] 0.00060382
2 *419:io_in[13] 0.00100416
3 *5:11 0.0267768
4 *5:10 0.0257726
5 *5:8 0.00253268
6 *5:7 0.0031365
7 *5:8 *42:10 0.0799726
8 *5:8 *81:10 0.0908974
9 *5:8 *82:12 0.000287962
10 *3:10 *5:8 0.000736509
*RES
1 io_in[13] *5:7 10.485 
2 *5:7 *5:8 138.69 
3 *5:8 *5:10 4.5 
4 *5:10 *5:11 282.78 
5 *5:11 *419:io_in[13] 10.935 
*END

*D_NET *6 0.208945
*CONN
*P io_in[14] I
*I *419:io_in[14] I *D rift2Wrap
*CAP
1 io_in[14] 0.000661741
2 *419:io_in[14] 0.000908607
3 *6:11 0.0266155
4 *6:10 0.0257069
5 *6:8 0.0106844
6 *6:7 0.0113461
7 *6:8 *43:8 0.114588
8 *6:8 *44:14 0.00609665
9 *6:8 *79:10 0.0123365
*RES
1 io_in[14] *6:7 11.025 
2 *6:7 *6:8 189.45 
3 *6:8 *6:10 4.5 
4 *6:10 *6:11 282.24 
5 *6:11 *419:io_in[14] 9.855 
*END

*D_NET *7 0.103715
*CONN
*P io_in[15] I
*I *419:io_in[15] I *D rift2Wrap
*CAP
1 io_in[15] 0.00221117
2 *419:io_in[15] 0.000819482
3 *7:14 0.0283997
4 *7:13 0.0275802
5 *7:11 0.0212466
6 *7:10 0.0234578
*RES
1 io_in[15] *7:10 32.535 
2 *7:10 *7:11 212.13 
3 *7:11 *7:13 4.5 
4 *7:13 *7:14 301.05 
5 *7:14 *419:io_in[15] 12.465 
*END

*D_NET *8 0.211751
*CONN
*P io_in[16] I
*I *419:io_in[16] I *D rift2Wrap
*CAP
1 io_in[16] 0.000236467
2 *419:io_in[16] 0.00170607
3 *8:11 0.0227759
4 *8:10 0.0210698
5 *8:8 0.0133889
6 *8:7 0.0136254
7 *8:8 *45:14 0.138948
*RES
1 io_in[16] *8:7 6.705 
2 *8:7 *8:8 211.95 
3 *8:8 *8:10 4.5 
4 *8:10 *8:11 210.96 
5 *8:11 *419:io_in[16] 16.875 
*END

*D_NET *9 0.0704298
*CONN
*P io_in[17] I
*I *419:io_in[17] I *D rift2Wrap
*CAP
1 io_in[17] 0.000291323
2 *419:io_in[17] 0.00108146
3 *9:16 0.0132052
4 *9:15 0.0121237
5 *9:13 0.0217184
6 *9:11 0.0220097
*RES
1 io_in[17] *9:11 3.015 
2 *9:11 *9:13 217.17 
3 *9:13 *9:15 4.5 
4 *9:15 *9:16 132.57 
5 *9:16 *419:io_in[17] 15.165 
*END

*D_NET *10 0.057278
*CONN
*P io_in[18] I
*I *419:io_in[18] I *D rift2Wrap
*CAP
1 io_in[18] 0.000671366
2 *419:io_in[18] 0.000753815
3 *10:11 0.0223853
4 *10:10 0.0216315
5 *10:8 0.00515753
6 *10:7 0.0058289
7 *419:io_in[18] *86:10 0.000849652
*RES
1 io_in[18] *10:7 11.025 
2 *10:7 *10:8 56.25 
3 *10:8 *10:10 4.5 
4 *10:10 *10:11 216.45 
5 *10:11 *419:io_in[18] 17.595 
*END

*D_NET *11 0.0531384
*CONN
*P io_in[19] I
*I *419:io_in[19] I *D rift2Wrap
*CAP
1 io_in[19] 0.000224243
2 *419:io_in[19] 0.00185101
3 *11:13 0.0240758
4 *11:11 0.022449
5 *419:io_in[19] *87:10 0.0045384
*RES
1 io_in[19] *11:11 2.475 
2 *11:11 *11:13 222.39 
3 *11:13 *419:io_in[19] 31.635 
*END

*D_NET *12 0.611075
*CONN
*P io_in[1] I
*I *419:io_in[1] I *D rift2Wrap
*CAP
1 io_in[1] 0.000255153
2 *419:io_in[1] 0.00110296
3 *12:11 0.0303031
4 *12:10 0.0292001
5 *12:8 0.0145005
6 *12:7 0.0147556
7 *12:8 *33:8 0.198428
8 *1:8 *12:8 0.322529
*RES
1 io_in[1] *12:7 6.705 
2 *12:7 *12:8 483.75 
3 *12:8 *12:10 4.5 
4 *12:10 *12:11 286.56 
5 *12:11 *419:io_in[1] 10.395 
*END

*D_NET *13 0.0623836
*CONN
*P io_in[20] I
*I *419:io_in[20] I *D rift2Wrap
*CAP
1 io_in[20] 0.000691415
2 *419:io_in[20] 0.000988465
3 *13:11 0.0224512
4 *13:10 0.0214627
5 *13:8 0.00804922
6 *13:7 0.00874063
7 *419:io_in[20] *49:8 0
8 *419:io_in[20] *87:10 0
*RES
1 io_in[20] *13:7 11.025 
2 *13:7 *13:8 87.21 
3 *13:8 *13:10 4.5 
4 *13:10 *13:11 214.83 
5 *13:11 *419:io_in[20] 18.495 
*END

*D_NET *14 0.148009
*CONN
*P io_in[21] I
*I *419:io_in[21] I *D rift2Wrap
*CAP
1 io_in[21] 0.000300925
2 *419:io_in[21] 0.00169564
3 *14:19 0.0228464
4 *14:18 0.0211508
5 *14:16 0.00933804
6 *14:15 0.00963897
7 *14:16 *52:14 0.00650702
8 *14:16 *53:12 0.076531
*RES
1 io_in[21] *14:15 7.785 
2 *14:15 *14:16 162.09 
3 *14:16 *14:18 4.5 
4 *14:18 *14:19 211.68 
5 *14:19 *419:io_in[21] 16.875 
*END

*D_NET *15 0.35002
*CONN
*P io_in[22] I
*I *419:io_in[22] I *D rift2Wrap
*CAP
1 io_in[22] 0.000223071
2 *419:io_in[22] 0.00174337
3 *15:11 0.0228472
4 *15:10 0.0211038
5 *15:8 0.00613196
6 *15:7 0.00635503
7 *15:8 *16:8 0.143798
8 *15:8 *52:14 0.13957
9 *15:8 *53:12 0.0082478
*RES
1 io_in[22] *15:7 6.525 
2 *15:7 *15:8 237.87 
3 *15:8 *15:10 4.5 
4 *15:10 *15:11 211.14 
5 *15:11 *419:io_in[22] 17.415 
*END

*D_NET *16 0.419084
*CONN
*P io_in[23] I
*I *419:io_in[23] I *D rift2Wrap
*CAP
1 io_in[23] 0.000236467
2 *419:io_in[23] 4.01718e-05
3 *16:11 0.0226003
4 *16:10 0.0225602
5 *16:8 0.00916158
6 *16:7 0.00939805
7 *16:8 *53:12 0.00967355
8 *16:8 *54:14 0.201616
9 *15:8 *16:8 0.143798
*RES
1 io_in[23] *16:7 6.705 
2 *16:7 *16:8 314.91 
3 *16:8 *16:10 4.5 
4 *16:10 *16:11 225.63 
5 *16:11 *419:io_in[23] 0.405 
*END

*D_NET *17 0.122348
*CONN
*P io_in[24] I
*I *419:io_in[24] I *D rift2Wrap
*CAP
1 io_in[24] 0.000605002
2 *419:io_in[24] 0.0377825
3 *17:10 0.0377825
4 *17:8 0.0192497
5 *17:7 0.0198547
6 *17:8 *18:8 0.000127056
7 *17:8 *55:10 0.000129007
8 *17:8 *93:10 0.00669362
9 *17:8 *94:10 0.000123572
*RES
1 io_in[24] *17:7 10.665 
2 *17:7 *17:8 218.79 
3 *17:8 *17:10 4.5 
4 *17:10 *419:io_in[24] 371.025 
*END

*D_NET *18 0.281189
*CONN
*P io_in[25] I
*I *419:io_in[25] I *D rift2Wrap
*CAP
1 io_in[25] 0.000677469
2 *419:io_in[25] 0.0338582
3 *18:10 0.0338582
4 *18:8 0.00288387
5 *18:7 0.00356134
6 *18:8 *20:8 0.000368254
7 *18:8 *55:10 0.109801
8 *18:8 *94:10 0.096053
9 *17:8 *18:8 0.000127056
*RES
1 io_in[25] *18:7 11.025 
2 *18:7 *18:8 163.71 
3 *18:8 *18:10 4.5 
4 *18:10 *419:io_in[25] 370.665 
*END

*D_NET *19 0.204559
*CONN
*P io_in[26] I
*I *419:io_in[26] I *D rift2Wrap
*CAP
1 io_in[26] 0.000767988
2 *419:io_in[26] 0.0337677
3 *19:10 0.0337677
4 *19:8 0.00233283
5 *19:7 0.00310082
6 *19:8 *20:8 9.20636e-05
7 *19:8 *56:10 0.0722392
8 *19:8 *95:10 0.0584911
*RES
1 io_in[26] *19:7 11.565 
2 *19:7 *19:8 108.63 
3 *19:8 *19:10 4.5 
4 *19:10 *419:io_in[26] 370.125 
*END

*D_NET *20 0.109938
*CONN
*P io_in[27] I
*I *419:io_in[27] I *D rift2Wrap
*CAP
1 io_in[27] 0.000595404
2 *419:io_in[27] 0.033849
3 *20:10 0.033849
4 *20:8 0.00244928
5 *20:7 0.00304468
6 *20:8 io_oeb[27] 0
7 *20:8 *55:10 0.00122752
8 *20:8 *56:10 0.000414286
9 *20:8 *57:10 0
10 *20:8 *93:10 0.012582
11 *20:8 *94:10 0.000537038
12 *20:8 *95:10 0
13 *20:8 *96:12 0.0209291
14 *18:8 *20:8 0.000368254
15 *19:8 *20:8 9.20636e-05
*RES
1 io_in[27] *20:7 10.485 
2 *20:7 *20:8 53.55 
3 *20:8 *20:10 4.5 
4 *20:10 *419:io_in[27] 371.205 
*END

*D_NET *21 0.0775067
*CONN
*P io_in[28] I
*I *419:io_in[28] I *D rift2Wrap
*CAP
1 io_in[28] 0.000167681
2 *419:io_in[28] 0.000523187
3 *21:13 0.0385857
4 *21:11 0.0382302
5 *21:13 *97:10 0
*RES
1 io_in[28] *21:11 1.755 
2 *21:11 *21:13 374.67 
3 *21:13 *419:io_in[28] 14.355 
*END

*D_NET *22 0.0802317
*CONN
*P io_in[29] I
*I *419:io_in[29] I *D rift2Wrap
*CAP
1 io_in[29] 0.000611329
2 *419:io_in[29] 0.0338473
3 *22:10 0.0338473
4 *22:8 0.00565724
5 *22:7 0.00626857
*RES
1 io_in[29] *22:7 10.665 
2 *22:7 *22:8 56.43 
3 *22:8 *22:10 4.5 
4 *22:10 *419:io_in[29] 371.025 
*END

*D_NET *23 0.145292
*CONN
*P io_in[2] I
*I *419:io_in[2] I *D rift2Wrap
*CAP
1 io_in[2] 0.000215438
2 *419:io_in[2] 0.00165946
3 *23:16 0.0456459
4 *23:15 0.0439864
5 *23:13 0.0267848
6 *23:11 0.0270003
7 *23:16 *208:17 0
*RES
1 io_in[2] *23:11 2.115 
2 *23:11 *23:13 281.97 
3 *23:13 *23:15 4.5 
4 *23:15 *23:16 434.79 
5 *23:16 *419:io_in[2] 20.475 
*END

*D_NET *24 0.0916055
*CONN
*P io_in[30] I
*I *419:io_in[30] I *D rift2Wrap
*CAP
1 io_in[30] 0.00179921
2 *419:io_in[30] 0.0328363
3 *24:10 0.0328363
4 *24:8 0.0111672
5 *24:7 0.0129664
*RES
1 io_in[30] *24:7 21.465 
2 *24:7 *24:8 111.51 
3 *24:8 *24:10 4.5 
4 *24:10 *419:io_in[30] 360.225 
*END

*D_NET *25 0.102769
*CONN
*P io_in[31] I
*I *419:io_in[31] I *D rift2Wrap
*CAP
1 io_in[31] 0.00198338
2 *419:io_in[31] 0.0326259
3 *25:18 0.0326259
4 *25:16 0.0167751
5 *25:15 0.0187584
*RES
1 io_in[31] *25:15 25.425 
2 *25:15 *25:16 167.49 
3 *25:16 *25:18 4.5 
4 *25:18 *419:io_in[31] 357.525 
*END

*D_NET *26 0.11484
*CONN
*P io_in[32] I
*I *419:io_in[32] I *D rift2Wrap
*CAP
1 io_in[32] 0.000310538
2 *419:io_in[32] 0.0289529
3 *26:18 0.0289529
4 *26:16 0.0224745
5 *26:15 0.0224745
6 *26:13 0.00568199
7 *26:11 0.00599252
*RES
1 io_in[32] *26:11 2.835 
2 *26:11 *26:13 60.21 
3 *26:13 *26:15 4.5 
4 *26:15 *26:16 224.19 
5 *26:16 *26:18 4.5 
6 *26:18 *419:io_in[32] 317.025 
*END

*D_NET *27 0.12512
*CONN
*P io_in[33] I
*I *419:io_in[33] I *D rift2Wrap
*CAP
1 io_in[33] 0.00379168
2 *419:io_in[33] 0.0309273
3 *27:18 0.0309273
4 *27:16 0.027841
5 *27:15 0.0316327
*RES
1 io_in[33] *27:15 44.865 
2 *27:15 *27:16 278.19 
3 *27:16 *27:18 4.5 
4 *27:18 *419:io_in[33] 338.625 
*END

*D_NET *28 0.13572
*CONN
*P io_in[34] I
*I *419:io_in[34] I *D rift2Wrap
*CAP
1 io_in[34] 0.000611329
2 *419:io_in[34] 0.0340181
3 *28:10 0.0340181
4 *28:8 0.0332303
5 *28:7 0.0338416
*RES
1 io_in[34] *28:7 10.665 
2 *28:7 *28:8 331.83 
3 *28:8 *28:10 4.5 
4 *28:10 *419:io_in[34] 371.025 
*END

*D_NET *29 0.152279
*CONN
*P io_in[35] I
*I *419:io_in[35] I *D rift2Wrap
*CAP
1 io_in[35] 0.000237175
2 *419:io_in[35] 0.000551729
3 *29:16 0.0399033
4 *29:15 0.0393516
5 *29:13 0.0350352
6 *29:11 0.0352723
7 *419:io_in[35] *98:11 0.00192726
*RES
1 io_in[35] *29:11 2.295 
2 *29:11 *29:13 370.71 
3 *29:13 *29:15 4.5 
4 *29:15 *29:16 388.89 
5 *29:16 *419:io_in[35] 11.025 
*END

*D_NET *30 0.160526
*CONN
*P io_in[36] I
*I *419:io_in[36] I *D rift2Wrap
*CAP
1 io_in[36] 0.00010158
2 *419:io_in[36] 0.0066146
3 *30:18 0.0066146
4 *30:16 0.0446714
5 *30:15 0.0446714
6 *30:13 0.0288753
7 *30:11 0.0289769
8 *30:16 *336:13 0
*RES
1 io_in[36] *30:11 1.215 
2 *30:11 *30:13 305.91 
3 *30:13 *30:15 4.5 
4 *30:15 *30:16 442.89 
5 *30:16 *30:18 4.5 
6 *30:18 *419:io_in[36] 71.325 
*END

*D_NET *31 0.173055
*CONN
*P io_in[37] I
*I *419:io_in[37] I *D rift2Wrap
*CAP
1 io_in[37] 0.000310538
2 *419:io_in[37] 0.00566488
3 *31:18 0.00566488
4 *31:16 0.0503552
5 *31:15 0.0503552
6 *31:13 0.0300434
7 *31:11 0.030354
8 *31:13 *397:10 0
9 *31:16 *401:13 0.000306879
*RES
1 io_in[37] *31:11 2.835 
2 *31:11 *31:13 316.71 
3 *31:13 *31:15 4.5 
4 *31:15 *31:16 499.59 
5 *31:16 *31:18 4.5 
6 *31:18 *419:io_in[37] 60.525 
*END

*D_NET *32 0.134701
*CONN
*P io_in[3] I
*I *419:io_in[3] I *D rift2Wrap
*CAP
1 io_in[3] 0.000145659
2 *419:io_in[3] 0.00103338
3 *32:16 0.0397616
4 *32:15 0.0387282
5 *32:13 0.0272898
6 *32:11 0.0274354
7 *32:13 *168:16 0
8 *32:16 *419:io_in[5] 0.000306879
9 *32:16 *144:13 0
*RES
1 io_in[3] *32:11 1.575 
2 *32:11 *32:13 287.37 
3 *32:13 *32:15 4.5 
4 *32:15 *32:16 383.31 
5 *32:16 *419:io_in[3] 14.085 
*END

*D_NET *33 0.336015
*CONN
*P io_in[4] I
*I *419:io_in[4] I *D rift2Wrap
*CAP
1 io_in[4] 0.000239227
2 *419:io_in[4] 0.00113372
3 *33:11 0.0272815
4 *33:10 0.0261478
5 *33:8 0.0168145
6 *33:7 0.0170537
7 *33:8 *37:8 0.0489165
8 *12:8 *33:8 0.198428
*RES
1 io_in[4] *33:7 6.525 
2 *33:7 *33:8 328.77 
3 *33:8 *33:10 4.5 
4 *33:10 *33:11 286.74 
5 *33:11 *419:io_in[4] 9.855 
*END

*D_NET *34 0.11157
*CONN
*P io_in[5] I
*I *419:io_in[5] I *D rift2Wrap
*CAP
1 io_in[5] 0.000680091
2 *419:io_in[5] 0.00341983
3 *34:11 0.0290325
4 *34:10 0.0256127
5 *34:8 0.0252663
6 *34:7 0.0259464
7 *419:io_in[5] *114:11 0.00130556
8 *32:16 *419:io_in[5] 0.000306879
*RES
1 io_in[5] *34:7 11.025 
2 *34:7 *34:8 252.27 
3 *34:8 *34:10 4.5 
4 *34:10 *34:11 280.53 
5 *34:11 *419:io_in[5] 45.135 
*END

*D_NET *35 0.103785
*CONN
*P io_in[6] I
*I *419:io_in[6] I *D rift2Wrap
*CAP
1 io_in[6] 0.000280649
2 *419:io_in[6] 0.00212898
3 *35:16 0.0253473
4 *35:15 0.0232183
5 *35:13 0.0262644
6 *35:11 0.026545
7 *35:16 *145:9 0
*RES
1 io_in[6] *35:11 2.655 
2 *35:11 *35:13 276.57 
3 *35:13 *35:15 4.5 
4 *35:15 *35:16 227.61 
5 *35:16 *419:io_in[6] 26.235 
*END

*D_NET *36 0.0926757
*CONN
*P io_in[7] I
*I *419:io_in[7] I *D rift2Wrap
*CAP
1 io_in[7] 0.000215438
2 *419:io_in[7] 8.3608e-05
3 *36:19 0.00430834
4 *36:16 0.0221707
5 *36:15 0.017946
6 *36:13 0.0238681
7 *36:11 0.0240835
8 *36:13 *283:14 0
9 *36:16 *149:5 0
10 *36:16 *210:19 0
*RES
1 io_in[7] *36:11 2.115 
2 *36:11 *36:13 252.27 
3 *36:13 *36:15 4.5 
4 *36:15 *36:16 175.59 
5 *36:16 *36:19 49.23 
6 *36:19 *419:io_in[7] 0.945 
*END

*D_NET *37 0.129433
*CONN
*P io_in[8] I
*I *419:io_in[8] I *D rift2Wrap
*CAP
1 io_in[8] 0.00022183
2 *419:io_in[8] 0.00108805
3 *37:11 0.0302006
4 *37:10 0.0291126
5 *37:8 0.00983581
6 *37:7 0.0100576
7 *33:8 *37:8 0.0489165
*RES
1 io_in[8] *37:7 6.345 
2 *37:7 *37:8 120.33 
3 *37:8 *37:10 4.5 
4 *37:10 *37:11 286.92 
5 *37:11 *419:io_in[8] 10.935 
*END

*D_NET *38 0.107757
*CONN
*P io_in[9] I
*I *419:io_in[9] I *D rift2Wrap
*CAP
1 io_in[9] 0.00398558
2 *419:io_in[9] 0.000349099
3 *38:12 0.00447068
4 *38:11 0.00412158
5 *38:9 0.0230343
6 *38:7 0.0270199
7 *38:12 *75:8 0.000941095
8 *38:12 *113:8 0.0432699
9 *38:12 *114:8 0.000564657
*RES
1 io_in[9] *38:7 43.425 
2 *38:7 *38:9 250.2 
3 *38:9 *38:11 4.5 
4 *38:11 *38:12 71.73 
5 *38:12 *419:io_in[9] 8.325 
*END

*D_NET *39 0.159246
*CONN
*P io_oeb[0] O
*I *419:io_oeb[0] O *D rift2Wrap
*CAP
1 io_oeb[0] 0.000310538
2 *419:io_oeb[0] 0.00287895
3 *39:13 0.0258094
4 *39:12 0.0254989
5 *39:10 0.0509344
6 *39:9 0.0538134
7 *39:10 *146:11 0
*RES
1 *419:io_oeb[0] *39:9 33.615 
2 *39:9 *39:10 504.99 
3 *39:10 *39:12 4.5 
4 *39:12 *39:13 268.47 
5 *39:13 io_oeb[0] 2.835 
*END

*D_NET *40 0.0577467
*CONN
*P io_oeb[10] O
*I *419:io_oeb[10] O *D rift2Wrap
*CAP
1 io_oeb[10] 0.00217317
2 *419:io_oeb[10] 5.17573e-05
3 *40:7 0.0285233
4 *40:5 0.0264019
5 io_oeb[10] *79:10 0.000260847
6 *3:10 io_oeb[10] 0
7 *4:11 io_oeb[10] 0.000335716
*RES
1 *419:io_oeb[10] *40:5 0.585 
2 *40:5 *40:7 289.17 
3 *40:7 io_oeb[10] 32.535 
*END

*D_NET *41 0.10644
*CONN
*P io_oeb[11] O
*I *419:io_oeb[11] O *D rift2Wrap
*CAP
1 io_oeb[11] 0.000540118
2 *419:io_oeb[11] 0.000972309
3 *41:14 0.00464246
4 *41:13 0.00410234
5 *41:11 0.0258477
6 *41:9 0.02682
7 *3:10 *41:14 0
8 *4:8 *41:14 0.0435154
*RES
1 *419:io_oeb[11] *41:9 10.575 
2 *41:9 *41:11 283.5 
3 *41:11 *41:13 4.5 
4 *41:13 *41:14 69.21 
5 *41:14 io_oeb[11] 9.765 
*END

*D_NET *42 0.20678
*CONN
*P io_oeb[12] O
*I *419:io_oeb[12] O *D rift2Wrap
*CAP
1 io_oeb[12] 0.000587894
2 *419:io_oeb[12] 9.95333e-05
3 *42:10 0.00291024
4 *42:9 0.00232235
5 *42:7 0.0265538
6 *42:5 0.0266533
7 *42:10 *80:14 0.0672064
8 *42:10 *82:12 0.000205798
9 *3:10 *42:10 0.000268519
10 *5:8 *42:10 0.0799726
*RES
1 *419:io_oeb[12] *42:5 1.125 
2 *42:5 *42:7 291.15 
3 *42:7 *42:9 4.5 
4 *42:9 *42:10 119.97 
5 *42:10 io_oeb[12] 10.305 
*END

*D_NET *43 0.279833
*CONN
*P io_oeb[13] O
*I *419:io_oeb[13] O *D rift2Wrap
*CAP
1 io_oeb[13] 0.000640024
2 *419:io_oeb[13] 0.0264768
3 *43:8 0.00351311
4 *43:7 0.00287309
5 *43:5 0.0264768
6 *43:8 *79:10 0.000613758
7 *43:8 *81:10 0.101822
8 *43:8 *82:12 0.00280151